<?xml version="1.0" encoding="UTF-8"?>


<net version="1.9" junctionCornerDetail="5" limitTurnSpeed="5.50" xmlns:xsi="http://www.w3.org/2001/XMLSchema-instance" xsi:noNamespaceSchemaLocation="http://sumo.dlr.de/xsd/net_file.xsd">

    <location netOffset="280.45,313.88" convBoundary="0.00,0.00,552.63,636.28" origBoundary="-287.61,-320.84,272.19,322.41" projParameter="!"/>

    <edge id=":-59499_0" function="internal">
        <lane id=":-59499_0_0" index="0" speed="13.89" length="2.20" width="4.00" shape="482.75,622.27 482.92,622.27 483.03,622.27 483.14,622.25 483.30,622.21"/>
        <lane id=":-59499_0_1" index="1" speed="13.89" length="2.20" width="4.00" shape="482.73,626.27 483.22,626.27 483.55,626.25 483.88,626.19 484.35,626.06"/>
        <lane id=":-59499_0_2" index="2" speed="13.89" length="2.20" width="4.00" shape="482.70,630.27 483.52,630.27 484.08,630.24 484.62,630.13 485.41,629.92"/>
        <lane id=":-59499_0_3" index="3" speed="13.89" length="2.20" width="4.00" shape="482.68,634.27 483.82,634.27 484.60,634.22 485.37,634.07 486.47,633.78"/>
    </edge>
    <edge id=":-59511_0" function="internal">
        <lane id=":-59511_0_0" index="0" speed="13.89" length="0.52" width="4.00" shape="-5.13,60.39 -5.11,59.66"/>
        <lane id=":-59511_0_1" index="1" speed="13.89" length="0.52" width="4.00" shape="-1.13,60.39 -1.11,59.80"/>
        <lane id=":-59511_0_2" index="2" speed="13.89" length="0.52" width="4.00" shape="2.87,60.39 2.88,59.95"/>
        <lane id=":-59511_0_3" index="3" speed="13.89" length="0.52" width="4.00" shape="6.87,60.39 6.88,60.09"/>
    </edge>
    <edge id=":-59536_0" function="internal">
        <lane id=":-59536_0_0" index="0" speed="13.89" length="20.00" width="4.00" shape="-5.17,212.03 -5.12,192.06"/>
        <lane id=":-59536_0_1" index="1" speed="13.89" length="20.00" width="4.00" shape="-1.17,212.05 -1.12,192.06"/>
        <lane id=":-59536_0_2" index="2" speed="13.89" length="20.00" width="4.00" shape="2.83,212.07 2.88,192.06"/>
        <lane id=":-59536_0_3" index="3" speed="13.89" length="20.00" width="4.00" shape="6.83,212.09 6.88,192.06"/>
    </edge>
    <edge id=":-59536_4" function="internal">
        <lane id=":-59536_4_0" index="0" speed="9.06" length="17.58" width="4.00" shape="6.83,212.09 7.10,204.96 7.82,199.84 8.99,196.74 10.62,195.65"/>
        <lane id=":-59536_4_1" index="1" speed="8.13" length="13.89" width="4.00" shape="6.83,212.09 7.10,206.71 7.85,202.84 9.08,200.49 10.79,199.65"/>
        <lane id=":-59536_4_2" index="2" speed="7.10" length="10.31" width="4.00" shape="6.83,212.09 7.10,208.46 7.88,205.84 9.17,204.24 10.96,203.65"/>
        <lane id=":-59536_4_3" index="3" speed="5.99" length="6.98" width="4.00" shape="6.83,212.09 7.11,210.21 7.91,208.84 9.25,207.99 11.13,207.64"/>
    </edge>
    <edge id=":-59540_0" function="internal">
        <lane id=":-59540_0_0" index="0" speed="13.89" length="1.39" width="4.00" shape="150.50,205.34 151.21,205.46 151.70,205.56 152.17,205.70 152.86,205.94"/>
        <lane id=":-59540_0_1" index="1" speed="13.89" length="1.39" width="4.00" shape="149.86,209.29 150.36,209.37 150.71,209.44 151.05,209.55 151.54,209.71"/>
        <lane id=":-59540_0_2" index="2" speed="13.89" length="1.39" width="4.00" shape="149.21,213.23 149.52,213.28 149.72,213.33 149.93,213.39 150.22,213.49"/>
        <lane id=":-59540_0_3" index="3" speed="13.89" length="1.39" width="4.00" shape="148.57,217.18 148.67,217.20 148.74,217.21 148.81,217.23 148.90,217.27"/>
    </edge>
    <edge id=":-59544_0" function="internal">
        <lane id=":-59544_0_0" index="0" speed="13.89" length="1.81" width="4.00" shape="425.32,404.39 425.45,404.44 425.55,404.45 425.64,404.45 425.78,404.47"/>
        <lane id=":-59544_0_1" index="1" speed="13.89" length="1.81" width="4.00" shape="423.42,407.90 423.78,408.07 424.04,408.16 424.31,408.22 424.70,408.32"/>
        <lane id=":-59544_0_2" index="2" speed="13.89" length="1.81" width="4.00" shape="421.51,411.42 422.11,411.71 422.54,411.88 422.98,412.00 423.62,412.18"/>
        <lane id=":-59544_0_3" index="3" speed="13.89" length="1.81" width="4.00" shape="419.60,414.94 420.44,415.35 421.03,415.59 421.64,415.78 422.55,416.03"/>
    </edge>
    <edge id=":-59547_0" function="internal">
        <lane id=":-59547_0_0" index="0" speed="13.89" length="20.00" width="4.00" shape="537.17,437.55 537.00,417.52"/>
        <lane id=":-59547_0_1" index="1" speed="13.89" length="20.00" width="4.00" shape="541.17,437.50 541.00,417.49"/>
        <lane id=":-59547_0_2" index="2" speed="13.89" length="20.00" width="4.00" shape="545.17,437.46 545.00,417.47"/>
        <lane id=":-59547_0_3" index="3" speed="13.89" length="20.00" width="4.00" shape="549.17,437.41 549.00,417.44"/>
    </edge>
    <edge id=":-59547_4" function="internal">
        <lane id=":-59547_4_0" index="0" speed="5.58" length="6.20" width="4.00" shape="533.16,421.32 534.85,421.11 536.05,420.40 536.77,419.21 537.00,417.52"/>
        <lane id=":-59547_4_1" index="1" speed="7.63" length="12.75" width="4.00" shape="533.09,425.32 536.57,424.88 539.05,423.43 540.53,420.97 541.00,417.49"/>
        <lane id=":-59547_4_2" index="2" speed="9.23" length="19.31" width="4.00" shape="533.03,429.32 538.29,428.65 542.05,426.46 544.28,422.73 545.00,417.47"/>
        <lane id=":-59547_4_3" index="3" speed="10.60" length="25.87" width="4.00" shape="532.96,433.32 540.02,432.43 545.04,429.48 548.04,424.49 549.00,417.44"/>
    </edge>
    <edge id=":-59549_0" function="internal">
        <lane id=":-59549_0_0" index="0" speed="5.79" length="6.60" width="4.00" shape="223.30,620.63 225.09,620.39 226.38,619.63 227.17,618.36 227.46,616.58"/>
        <lane id=":-59549_0_1" index="1" speed="6.93" length="10.02" width="4.00" shape="223.30,620.63 226.84,620.40 229.38,619.66 230.92,618.42 231.46,616.66"/>
        <lane id=":-59549_0_2" index="2" speed="7.97" length="13.65" width="4.00" shape="223.30,620.63 228.59,620.42 232.38,619.70 234.67,618.47 235.46,616.74"/>
        <lane id=":-59549_0_3" index="3" speed="8.91" length="17.40" width="4.00" shape="223.30,620.63 230.34,620.43 235.38,619.73 238.42,618.52 239.46,616.82"/>
    </edge>
    <edge id=":-59549_4" function="internal">
        <lane id=":-59549_4_0" index="0" speed="13.89" length="20.00" width="4.00" shape="223.30,620.63 243.30,620.76"/>
        <lane id=":-59549_4_1" index="1" speed="13.89" length="20.00" width="4.00" shape="223.27,624.63 243.27,624.76"/>
        <lane id=":-59549_4_2" index="2" speed="13.89" length="20.00" width="4.00" shape="223.25,628.63 243.25,628.76"/>
        <lane id=":-59549_4_3" index="3" speed="13.89" length="20.00" width="4.00" shape="223.22,632.63 243.22,632.76"/>
    </edge>
    <edge id=":-59554_0" function="internal">
        <lane id=":-59554_0_0" index="0" speed="13.69" length="3.68" width="4.00" shape="205.30,437.06 205.16,435.16 205.22,433.85 205.54,432.57 206.20,430.79"/>
        <lane id=":-59554_0_1" index="1" speed="11.63" length="3.68" width="4.00" shape="209.28,436.72 209.19,435.37 209.23,434.43 209.46,433.51 209.93,432.24"/>
        <lane id=":-59554_0_2" index="2" speed="9.13" length="3.68" width="4.00" shape="213.27,436.38 213.21,435.57 213.24,435.00 213.37,434.46 213.66,433.69"/>
        <lane id=":-59554_0_3" index="3" speed="13.89" length="3.68" width="4.00" shape="217.26,436.04 217.24,435.77 217.24,435.58 217.29,435.40 217.38,435.14"/>
    </edge>
    <edge id=":-59556_0" function="internal">
        <lane id=":-59556_0_0" index="0" speed="5.80" length="6.61" width="4.00" shape="293.38,302.55 294.89,303.55 296.36,303.83 297.79,303.40 299.19,302.25"/>
        <lane id=":-59556_0_1" index="1" speed="6.93" length="10.02" width="4.00" shape="293.38,302.55 296.20,304.71 298.59,305.83 300.58,305.91 302.14,304.95"/>
    </edge>
    <edge id=":-59556_2" function="internal">
        <lane id=":-59556_2_0" index="0" speed="13.89" length="20.00" width="4.00" shape="293.38,302.55 308.33,315.84"/>
        <lane id=":-59556_2_1" index="1" speed="13.89" length="20.00" width="4.00" shape="290.73,305.54 305.67,318.83"/>
        <lane id=":-59556_2_2" index="2" speed="13.89" length="20.00" width="4.00" shape="288.07,308.53 303.02,321.82"/>
        <lane id=":-59556_2_3" index="3" speed="13.89" length="20.00" width="4.00" shape="285.41,311.52 300.36,324.81"/>
    </edge>
    <edge id=":-59556_6" function="internal">
        <lane id=":-59556_6_0" index="0" speed="13.89" length="20.00" width="4.00" shape="285.74,317.16 299.19,302.25"/>
        <lane id=":-59556_6_1" index="1" speed="13.89" length="20.00" width="4.00" shape="288.72,319.82 302.14,304.95"/>
        <lane id=":-59556_6_2" index="2" speed="13.89" length="20.00" width="4.00" shape="291.71,322.48 305.09,307.65"/>
        <lane id=":-59556_6_3" index="3" speed="13.89" length="20.00" width="4.00" shape="294.70,325.14 308.04,310.35"/>
    </edge>
    <edge id=":-59556_10" function="internal">
        <lane id=":-59556_10_0" index="0" speed="6.87" length="9.90" width="4.00" shape="294.70,325.14 297.22,322.69 299.44,321.32 301.38,321.03 303.02,321.82"/>
        <lane id=":-59556_10_1" index="1" speed="5.72" length="6.47" width="4.00" shape="294.70,325.14 296.05,324.00 297.45,323.56 298.88,323.83 300.36,324.81"/>
    </edge>
    <edge id=":-59562_0" function="internal">
        <lane id=":-59562_0_0" index="0" speed="10.59" length="25.86" width="4.00" shape="417.03,11.20 417.92,4.15 420.86,-0.87 425.85,-3.87 432.90,-4.83"/>
        <lane id=":-59562_0_1" index="1" speed="9.23" length="19.30" width="4.00" shape="421.03,11.13 421.69,5.87 423.89,2.12 427.61,-0.11 432.87,-0.83"/>
        <lane id=":-59562_0_2" index="2" speed="7.62" length="12.74" width="4.00" shape="425.03,11.06 425.47,7.59 426.92,5.12 429.38,3.64 432.85,3.17"/>
        <lane id=":-59562_0_3" index="3" speed="5.57" length="6.18" width="4.00" shape="429.03,10.99 429.24,9.31 429.94,8.11 431.14,7.40 432.82,7.17"/>
    </edge>
    <edge id=":-59562_4" function="internal">
        <lane id=":-59562_4_0" index="0" speed="13.89" length="20.00" width="4.00" shape="412.90,-4.96 432.90,-4.83"/>
        <lane id=":-59562_4_1" index="1" speed="13.89" length="20.00" width="4.00" shape="412.87,-0.96 432.87,-0.83"/>
        <lane id=":-59562_4_2" index="2" speed="13.89" length="20.00" width="4.00" shape="412.85,3.04 432.85,3.17"/>
        <lane id=":-59562_4_3" index="3" speed="13.89" length="20.00" width="4.00" shape="412.82,7.04 432.82,7.17"/>
    </edge>
    <edge id=":-59608_0" function="internal">
        <lane id=":-59608_0_0" index="0" speed="13.89" length="0.10" width="4.00" shape="536.27,304.31 536.27,304.31"/>
        <lane id=":-59608_0_1" index="1" speed="13.89" length="0.10" width="4.00" shape="540.27,304.28 540.27,304.28"/>
        <lane id=":-59608_0_2" index="2" speed="13.89" length="0.10" width="4.00" shape="544.27,304.26 544.27,304.26"/>
        <lane id=":-59608_0_3" index="3" speed="13.89" length="0.10" width="4.00" shape="548.27,304.23 548.27,304.23"/>
    </edge>
    <edge id=":-59609_0" function="internal">
        <lane id=":-59609_0_0" index="0" speed="13.89" length="0.29" width="4.00" shape="-6.00,376.55 -6.00,376.27"/>
        <lane id=":-59609_0_1" index="1" speed="13.89" length="0.29" width="4.00" shape="-2.00,376.57 -2.00,376.29"/>
        <lane id=":-59609_0_2" index="2" speed="13.89" length="0.29" width="4.00" shape="2.00,376.60 2.00,376.31"/>
        <lane id=":-59609_0_3" index="3" speed="13.89" length="0.29" width="4.00" shape="6.00,376.62 6.00,376.33"/>
    </edge>
    <edge id=":-59610_0" function="internal">
        <lane id=":-59610_0_0" index="0" speed="13.89" length="0.10" width="4.00" shape="248.68,-6.00 248.68,-6.00"/>
        <lane id=":-59610_0_1" index="1" speed="13.89" length="0.10" width="4.00" shape="248.65,-2.00 248.65,-2.00"/>
        <lane id=":-59610_0_2" index="2" speed="13.89" length="0.10" width="4.00" shape="248.63,2.00 248.63,2.00"/>
        <lane id=":-59610_0_3" index="3" speed="13.89" length="0.10" width="4.00" shape="248.60,6.00 248.60,6.00"/>
    </edge>

    <edge id="-7675" from="-59498" to="-59549" priority="-1" shape="62.34,633.62 223.21,634.63">
        <lane id="-7675_0" index="0" speed="13.89" length="157.43" width="4.00" shape="65.87,619.64 223.30,620.63"/>
        <lane id="-7675_1" index="1" speed="13.89" length="157.43" width="4.00" shape="65.85,623.64 223.27,624.63"/>
        <lane id="-7675_2" index="2" speed="13.89" length="157.43" width="4.00" shape="65.82,627.64 223.25,628.63"/>
        <lane id="-7675_3" index="3" speed="13.89" length="157.43" width="4.00" shape="65.80,631.64 223.22,632.63"/>
    </edge>
    <edge id="-7677" from="-59562" to="-59514" priority="-1" shape="432.81,9.17 476.84,9.45 491.71,10.18 505.03,16.33 516.92,25.20 525.27,34.96 532.22,46.94 532.68,57.09">
        <lane id="-7677_0" index="0" speed="13.89" length="136.10" width="4.00" shape="432.90,-4.83 477.23,-4.55 495.11,-3.67 512.23,4.23 526.54,14.91 536.74,26.83 546.05,42.88 546.60,54.99"/>
        <lane id="-7677_1" index="1" speed="13.89" length="136.10" width="4.00" shape="432.87,-0.83 477.12,-0.55 494.14,0.29 510.17,7.69 523.79,17.85 533.46,29.15 542.10,44.04 542.60,55.17"/>
        <lane id="-7677_2" index="2" speed="13.89" length="136.10" width="4.00" shape="432.85,3.17 477.01,3.45 493.17,4.24 508.11,11.15 521.04,20.79 530.19,31.48 538.15,45.20 538.61,55.35"/>
        <lane id="-7677_3" index="3" speed="13.89" length="136.10" width="4.00" shape="432.82,7.17 476.90,7.45 492.20,8.20 506.06,14.60 518.29,23.73 526.91,33.80 534.20,46.36 534.61,55.54"/>
    </edge>
    <edge id="-7683" from="-59498" to="-59609" priority="-1" shape="66.11,618.54 39.75,604.66 23.89,580.26 11.73,558.18 7.16,542.52 5.70,532.41 7.29,512.40 7.31,511.80 8.00,376.49">
        <lane id="-7683_0" index="0" speed="13.89" length="271.98" width="4.00" shape="56.54,629.32 30.00,615.35 11.87,587.46 -1.28,563.58 -6.56,545.50 -8.38,532.86 -6.67,511.31 -6.69,511.53 -6.00,376.55"/>
        <lane id="-7683_1" index="1" speed="13.89" length="271.98" width="4.00" shape="58.40,625.78 32.79,612.29 15.31,585.40 2.44,562.04 -2.64,544.65 -4.36,532.73 -2.68,511.62 -2.00,376.57"/>
        <lane id="-7683_2" index="2" speed="13.89" length="271.98" width="4.00" shape="60.26,622.24 35.57,609.24 18.74,583.35 6.16,560.50 1.28,543.80 -0.33,532.60 1.31,511.93 1.31,511.68 2.00,376.60"/>
        <lane id="-7683_3" index="3" speed="13.89" length="271.98" width="4.00" shape="62.13,618.70 38.36,606.19 22.17,581.29 9.87,558.95 5.20,542.95 3.69,532.47 5.30,512.24 5.31,511.76 6.00,376.62"/>
    </edge>
    <edge id="-7684" from="-59499" to="-59547" priority="-1" shape="485.93,636.00 508.05,629.95 508.84,629.68 509.60,629.34 510.32,628.92 510.99,628.43 532.56,610.82 533.21,610.23 533.79,609.57 534.29,608.85 534.72,608.08 545.77,584.97 546.08,584.23 546.32,583.47 551.29,563.66 551.44,562.93 551.52,562.18 552.62,543.48 552.63,543.01 552.63,523.76 552.60,523.03 552.07,517.30 551.17,437.39">
        <lane id="-7684_0" index="0" speed="13.89" length="220.13" width="4.00" shape="483.30,622.21 502.93,616.84 503.27,616.66 522.52,600.95 522.76,600.64 532.85,579.53 532.92,579.35 537.55,560.88 537.58,560.69 538.64,542.67 538.63,542.86 538.63,523.78 538.63,523.96 538.08,518.02 537.17,437.55"/>
        <lane id="-7684_1" index="1" speed="13.89" length="220.13" width="4.00" shape="484.35,626.06 504.39,620.58 505.47,620.03 525.39,603.77 526.18,602.76 536.54,581.08 536.75,580.52 541.48,561.67 541.57,561.12 542.64,542.90 542.63,523.78 542.08,517.82 541.17,437.50"/>
        <lane id="-7684_2" index="2" speed="13.89" length="220.13" width="4.00" shape="485.41,629.92 506.45,624.17 506.64,624.10 506.86,624.00 507.03,623.90 507.32,623.68 528.76,606.18 528.93,606.02 529.06,605.87 529.20,605.67 529.39,605.32 540.35,582.39 540.45,582.16 540.54,581.84 545.47,562.21 545.51,562.01 545.54,561.69 546.63,543.13 546.63,542.95 546.63,523.77 546.61,523.43 546.07,517.61 545.17,437.46"/>
        <lane id="-7684_3" index="3" speed="13.89" length="220.13" width="4.00" shape="486.47,633.78 507.52,628.02 508.11,627.82 508.69,627.56 509.22,627.25 509.77,626.85 531.29,609.27 531.78,608.83 532.21,608.34 532.59,607.79 532.94,607.16 543.96,584.11 544.20,583.54 544.39,582.93 549.35,563.18 549.46,562.62 549.53,562.02 550.62,543.36 550.63,542.99 550.63,523.76 550.60,523.16 550.07,517.40 549.17,437.41"/>
    </edge>
    <edge id="-7711" from="-59536" to="-59540" priority="-1" shape="11.21,209.64 27.55,208.95 61.41,209.49 108.94,212.74 148.95,219.27">
        <lane id="-7711_0" index="0" speed="13.89" length="139.32" width="4.00" shape="10.62,195.65 27.37,194.95 62.00,195.50 110.55,198.82 150.50,205.34"/>
        <lane id="-7711_1" index="1" speed="13.89" length="139.32" width="4.00" shape="10.79,199.65 27.42,198.95 61.83,199.50 110.09,202.80 149.86,209.29"/>
        <lane id="-7711_2" index="2" speed="13.89" length="139.32" width="4.00" shape="10.96,203.65 27.47,202.95 61.66,203.49 109.63,206.77 149.21,213.23"/>
        <lane id="-7711_3" index="3" speed="13.89" length="139.32" width="4.00" shape="11.13,207.64 27.52,206.95 61.49,207.49 109.17,210.75 148.57,217.18"/>
    </edge>
    <edge id="-7724" from="-59549" to="-59554" priority="-1" shape="241.46,616.86 242.37,571.84 242.34,570.92 239.57,541.76 239.39,540.67 232.20,510.43 221.81,465.91 219.09,434.02">
        <lane id="-7724_0" index="0" speed="13.89" length="182.73" width="4.00" shape="227.46,616.58 228.37,571.57 228.36,571.81 225.64,543.12 225.66,543.43 218.57,513.64 207.95,468.11 205.30,437.06"/>
        <lane id="-7724_1" index="1" speed="13.89" length="182.73" width="4.00" shape="231.46,616.66 232.36,571.56 229.58,542.64 222.47,512.72 211.91,467.48 209.28,436.72"/>
        <lane id="-7724_2" index="2" speed="13.89" length="182.73" width="4.00" shape="235.46,616.74 236.37,571.73 236.35,571.30 233.60,542.34 233.50,541.85 226.36,511.81 215.87,466.85 213.27,436.38"/>
        <lane id="-7724_3" index="3" speed="13.89" length="182.73" width="4.00" shape="239.46,616.82 240.37,571.80 240.34,571.05 237.58,541.95 237.43,541.06 230.25,510.89 219.83,466.22 217.26,436.04"/>
    </edge>
    <edge id="-7844" from="-59556" to="-59544" priority="-1" shape="299.03,326.30 364.52,384.54 365.22,385.10 386.24,399.95 387.20,400.53 419.28,417.02">
        <lane id="-7844_0" index="0" speed="13.89" length="149.20" width="4.00" shape="308.33,315.84 373.82,374.07 373.64,373.91 394.28,388.49 394.03,388.30 425.32,404.39"/>
        <lane id="-7844_1" index="1" speed="13.89" length="149.20" width="4.00" shape="305.67,318.83 371.23,377.10 392.08,391.79 423.42,407.90"/>
        <lane id="-7844_2" index="2" speed="13.89" length="149.20" width="4.00" shape="303.02,321.82 368.50,380.05 368.83,380.30 389.69,395.04 390.13,395.29 421.51,411.42"/>
        <lane id="-7844_3" index="3" speed="13.89" length="149.20" width="4.00" shape="300.36,324.81 365.85,383.04 366.42,383.50 387.39,398.31 388.18,398.78 419.60,414.94"/>
    </edge>
    <edge id="-7847" from="-59556" to="-59562" priority="-1" shape="309.52,311.70 365.21,250.84 365.48,250.53 388.15,223.02 388.71,222.24 389.18,221.40 407.43,183.44 407.70,182.81 407.91,182.16 427.81,112.30 427.98,111.55 428.09,110.80 431.95,66.24 431.98,65.41 431.03,10.96">
        <lane id="-7847_0" index="0" speed="13.89" length="332.33" width="4.00" shape="299.19,302.25 354.88,241.39 354.80,241.48 376.80,214.78 376.92,214.59 394.54,177.94 394.60,177.78 414.17,109.09 414.20,108.91 418.00,65.04 417.98,65.28 417.03,11.20"/>
        <lane id="-7847_1" index="1" speed="13.89" length="332.33" width="4.00" shape="302.14,304.95 357.83,244.09 380.04,217.14 380.42,216.53 398.22,179.51 398.40,179.03 418.19,109.57 418.15,109.72 421.99,65.39 421.03,11.13"/>
        <lane id="-7847_2" index="2" speed="13.89" length="332.33" width="4.00" shape="305.09,307.65 360.78,246.79 360.90,246.65 383.51,219.21 383.64,219.02 383.85,218.63 402.02,180.84 402.08,180.70 402.17,180.42 422.04,110.66 422.08,110.45 422.13,110.11 425.97,65.73 425.98,65.35 425.03,11.06"/>
        <lane id="-7847_3" index="3" speed="13.89" length="332.33" width="4.00" shape="308.04,310.35 363.73,249.49 363.95,249.24 386.60,221.75 387.02,221.17 387.40,220.48 405.63,182.57 405.83,182.11 406.00,181.58 425.89,111.75 426.01,111.18 426.10,110.57 429.96,66.07 429.98,65.39 429.03,10.99"/>
    </edge>
    <edge id="-7860" from="-59608" to="-59514" priority="-1" shape="550.27,304.22 548.68,56.67">
        <lane id="-7860_0" index="0" speed="13.89" length="246.09" width="4.00" shape="536.27,304.31 534.69,58.23"/>
        <lane id="-7860_1" index="1" speed="13.89" length="246.09" width="4.00" shape="540.27,304.28 538.69,58.20"/>
        <lane id="-7860_2" index="2" speed="13.89" length="246.09" width="4.00" shape="544.27,304.26 542.69,58.17"/>
        <lane id="-7860_3" index="3" speed="13.89" length="246.09" width="4.00" shape="548.27,304.23 546.69,58.15"/>
    </edge>
    <edge id="-7872" from="-59609" to="-59536" priority="-1" shape="8.00,376.49 8.83,212.10">
        <lane id="-7872_0" index="0" speed="13.89" length="164.24" width="4.00" shape="-6.00,376.27 -5.17,212.03"/>
        <lane id="-7872_1" index="1" speed="13.89" length="164.24" width="4.00" shape="-2.00,376.29 -1.17,212.05"/>
        <lane id="-7872_2" index="2" speed="13.89" length="164.24" width="4.00" shape="2.00,376.31 2.83,212.07"/>
        <lane id="-7872_3" index="3" speed="13.89" length="164.24" width="4.00" shape="6.00,376.33 6.83,212.09"/>
    </edge>
    <edge id="-7889" from="-59511" to="-59610" priority="-1" shape="8.87,60.43 9.37,46.72 12.70,36.81 19.26,23.75 25.93,15.33 38.61,9.02 56.10,6.78 248.59,8.00">
        <lane id="-7889_0" index="0" speed="13.89" length="285.99" width="4.00" shape="-5.11,59.66 -4.55,44.18 -0.26,31.41 7.39,16.18 16.90,4.19 34.49,-4.57 55.25,-7.23 248.68,-6.00"/>
        <lane id="-7889_1" index="1" speed="13.89" length="285.99" width="4.00" shape="-1.11,59.80 -0.57,44.91 3.45,32.95 10.78,18.34 19.48,7.37 35.67,-0.68 55.49,-3.22 248.65,-2.00"/>
        <lane id="-7889_2" index="2" speed="13.89" length="285.99" width="4.00" shape="2.88,59.95 3.41,45.63 7.15,34.50 14.17,20.51 22.06,10.55 36.84,3.20 55.74,0.78 248.63,2.00"/>
        <lane id="-7889_3" index="3" speed="13.89" length="285.99" width="4.00" shape="6.88,60.09 7.38,46.36 10.85,36.04 17.56,22.67 24.64,13.74 38.02,7.08 55.98,4.78 248.60,6.00"/>
    </edge>
    <edge id="-7903" from="-59554" to="-59556" priority="-1" shape="218.57,437.61 235.19,394.94 296.19,326.47">
        <lane id="-7903_0" index="0" speed="13.89" length="138.51" width="4.00" shape="206.20,430.79 223.06,387.51 285.74,317.16"/>
        <lane id="-7903_1" index="1" speed="13.89" length="138.51" width="4.00" shape="209.93,432.24 226.53,389.63 288.72,319.82"/>
        <lane id="-7903_2" index="2" speed="13.89" length="138.51" width="4.00" shape="213.66,433.69 229.99,391.76 291.71,322.48"/>
        <lane id="-7903_3" index="3" speed="13.89" length="138.51" width="4.00" shape="217.38,435.14 233.46,393.88 294.70,325.14"/>
    </edge>
    <edge id="-7906" from="-59544" to="-59547" priority="-1" shape="420.78,417.61 460.05,428.61 460.63,428.75 461.21,428.84 509.33,434.88 510.19,434.95 532.93,435.32">
        <lane id="-7906_0" index="0" speed="13.89" length="111.02" width="4.00" shape="425.78,404.47 463.80,415.12 463.45,415.01 511.06,420.99 510.87,420.96 533.16,421.32"/>
        <lane id="-7906_1" index="1" speed="13.89" length="111.02" width="4.00" shape="424.70,408.32 462.73,418.97 510.57,424.96 510.68,424.96 533.09,425.32"/>
        <lane id="-7906_2" index="2" speed="13.89" length="111.02" width="4.00" shape="423.62,412.18 461.67,422.83 461.80,422.86 462.04,422.90 510.07,428.93 510.48,428.95 533.03,429.32"/>
        <lane id="-7906_3" index="3" speed="13.89" length="111.02" width="4.00" shape="422.55,416.03 460.59,426.68 461.02,426.79 461.49,426.86 509.58,432.90 510.29,432.95 532.96,433.32"/>
    </edge>
    <edge id="-7909" from="-59540" to="-59556" priority="-1" shape="147.60,218.93 198.10,236.55 284.08,313.01">
        <lane id="-7909_0" index="0" speed="13.89" length="171.03" width="4.00" shape="152.86,205.94 205.33,224.25 293.38,302.55"/>
        <lane id="-7909_1" index="1" speed="13.89" length="171.03" width="4.00" shape="151.54,209.71 203.26,227.76 290.73,305.54"/>
        <lane id="-7909_2" index="2" speed="13.89" length="171.03" width="4.00" shape="150.22,213.49 201.20,231.28 288.07,308.53"/>
        <lane id="-7909_3" index="3" speed="13.89" length="171.03" width="4.00" shape="148.90,217.27 199.13,234.79 285.41,311.52"/>
    </edge>
    <edge id="-7929" from="-59549" to="-59499" priority="-1" shape="243.21,634.76 483.76,636.28">
        <lane id="-7929_0" index="0" speed="13.89" length="239.46" width="4.00" shape="243.30,620.76 482.75,622.27"/>
        <lane id="-7929_1" index="1" speed="13.89" length="239.46" width="4.00" shape="243.27,624.76 482.73,626.27"/>
        <lane id="-7929_2" index="2" speed="13.89" length="239.46" width="4.00" shape="243.25,628.76 482.70,630.27"/>
        <lane id="-7929_3" index="3" speed="13.89" length="239.46" width="4.00" shape="243.22,632.76 482.68,634.27"/>
    </edge>
    <edge id="-7932" from="-59547" to="-59608" priority="-1" shape="551.00,417.43 550.27,304.22">
        <lane id="-7932_0" index="0" speed="13.89" length="113.21" width="4.00" shape="537.00,417.52 536.27,304.31"/>
        <lane id="-7932_1" index="1" speed="13.89" length="113.21" width="4.00" shape="541.00,417.49 540.27,304.28"/>
        <lane id="-7932_2" index="2" speed="13.89" length="113.21" width="4.00" shape="545.00,417.47 544.27,304.26"/>
        <lane id="-7932_3" index="3" speed="13.89" length="113.21" width="4.00" shape="549.00,417.44 548.27,304.23"/>
    </edge>
    <edge id="-7934" from="-59610" to="-59562" priority="-1" shape="248.59,8.00 412.81,9.04">
        <lane id="-7934_0" index="0" speed="13.89" length="164.22" width="4.00" shape="248.68,-6.00 412.90,-4.96"/>
        <lane id="-7934_1" index="1" speed="13.89" length="164.22" width="4.00" shape="248.65,-2.00 412.87,-0.96"/>
        <lane id="-7934_2" index="2" speed="13.89" length="164.22" width="4.00" shape="248.63,2.00 412.85,3.04"/>
        <lane id="-7934_3" index="3" speed="13.89" length="164.22" width="4.00" shape="248.60,6.00 412.82,7.04"/>
    </edge>
    <edge id="-7938" from="-59536" to="-59511" priority="-1" shape="8.88,192.06 8.87,60.13">
        <lane id="-7938_0" index="0" speed="13.89" length="131.67" width="4.00" shape="-5.12,192.06 -5.13,60.39"/>
        <lane id="-7938_1" index="1" speed="13.89" length="131.67" width="4.00" shape="-1.12,192.06 -1.13,60.39"/>
        <lane id="-7938_2" index="2" speed="13.89" length="131.67" width="4.00" shape="2.88,192.06 2.87,60.39"/>
        <lane id="-7938_3" index="3" speed="13.89" length="131.67" width="4.00" shape="6.88,192.06 6.87,60.39"/>
    </edge>

    <tlLogic id="-59536" type="static" programID="0" offset="0">
        <phase duration="82" state="GGGGGGGG"/>
        <phase duration="3"  state="yyyyyyyy"/>
        <phase duration="5"  state="rrrrrrrr"/>
    </tlLogic>
    <tlLogic id="-59547" type="static" programID="0" offset="0">
        <phase duration="42" state="GGGGrrrr"/>
        <phase duration="3"  state="yyyyrrrr"/>
        <phase duration="42" state="rrrrGGGG"/>
        <phase duration="3"  state="rrrryyyy"/>
    </tlLogic>
    <tlLogic id="-59549" type="static" programID="0" offset="0">
        <phase duration="82" state="GGGGGGGG"/>
        <phase duration="3"  state="yyyyyyyy"/>
        <phase duration="5"  state="rrrrrrrr"/>
    </tlLogic>
    <tlLogic id="-59556" type="static" programID="0" offset="0">
        <phase duration="42" state="GGGGGGrrrrrr"/>
        <phase duration="3"  state="yyyyyyrrrrrr"/>
        <phase duration="42" state="rrrrrrGGGGGG"/>
        <phase duration="3"  state="rrrrrryyyyyy"/>
    </tlLogic>
    <tlLogic id="-59562" type="static" programID="0" offset="0">
        <phase duration="42" state="GGGGrrrr"/>
        <phase duration="3"  state="yyyyrrrr"/>
        <phase duration="42" state="rrrrGGGG"/>
        <phase duration="3"  state="rrrryyyy"/>
    </tlLogic>

    <junction id="-59498" type="dead_end" x="62.39" y="625.62" incLanes="" intLanes="" shape="65.79,633.64 65.89,617.64 64.79,617.61 64.41,617.54 64.04,617.42 63.62,617.22 63.06,616.93 55.60,631.09 57.61,632.13 59.14,632.83 60.47,633.27 61.85,633.51 63.53,633.61"/>
    <junction id="-59499" type="priority" x="483.81" y="628.28" incLanes="-7929_0 -7929_1 -7929_2 -7929_3" intLanes=":-59499_0_0 :-59499_0_1 :-59499_0_2 :-59499_0_3" shape="487.00,635.71 482.77,620.27 482.67,636.27 484.29,636.26 484.86,636.21 485.42,636.11 486.10,635.95">
        <request index="0" response="0000" foes="0000" cont="0"/>
        <request index="1" response="0000" foes="0000" cont="0"/>
        <request index="2" response="0000" foes="0000" cont="0"/>
        <request index="3" response="0000" foes="0000" cont="0"/>
    </junction>
    <junction id="-59511" type="priority" x="0.87" y="60.13" incLanes="-7938_0 -7938_1 -7938_2 -7938_3" intLanes=":-59511_0_0 :-59511_0_1 :-59511_0_2 :-59511_0_3" shape="-7.13,60.39 8.87,60.39 8.88,60.17 -7.11,59.58">
        <request index="0" response="0000" foes="0000" cont="0"/>
        <request index="1" response="0000" foes="0000" cont="0"/>
        <request index="2" response="0000" foes="0000" cont="0"/>
        <request index="3" response="0000" foes="0000" cont="0"/>
    </junction>
    <junction id="-59514" type="dead_end" x="540.68" y="56.72" incLanes="-7860_0 -7860_1 -7860_2 -7860_3 -7677_0 -7677_1 -7677_2 -7677_3" intLanes="" shape="532.69,58.24 548.69,58.14 548.60,54.90 532.61,55.63"/>
    <junction id="-59536" type="traffic_light" x="0.88" y="202.06" incLanes="-7872_0 -7872_1 -7872_2 -7872_3" intLanes=":-59536_0_0 :-59536_0_1 :-59536_0_2 :-59536_0_3 :-59536_4_0 :-59536_4_1 :-59536_4_2 :-59536_4_3" shape="8.88,192.06 10.54,193.65 11.21,209.64 8.83,212.10 -7.17,212.02 -7.12,192.06" customShape="1">