<?xml version="1.0" encoding="UTF-8"?>

<net version="1.9" junctionCornerDetail="5" limitTurnSpeed="5.50" xmlns:xsi="http://www.w3.org/2001/XMLSchema-instance" xsi:noNamespaceSchemaLocation="http://sumo.dlr.de/xsd/net_file.xsd">

    <location netOffset="357.31,414.06" convBoundary="0.00,0.00,650.65,716.32" origBoundary="-357.31,-414.06,293.34,302.26" projParameter="!"/>

    <edge id=":-25381_0" function="internal">
        <lane id=":-25381_0_0" index="0" speed="13.89" length="17.00" width="3.50" shape="563.07,637.09 549.77,647.67"/>
        <lane id=":-25381_0_1" index="1" speed="13.89" length="17.00" width="3.50" shape="560.89,634.35 547.59,644.94"/>
    </edge>
    <edge id=":-25381_2" function="internal">
        <lane id=":-25381_2_0" index="0" speed="13.89" length="17.00" width="3.50" shape="543.23,639.46 556.53,628.88"/>
        <lane id=":-25381_2_1" index="1" speed="13.89" length="17.00" width="3.50" shape="545.41,642.20 558.71,631.61"/>
    </edge>
    <edge id=":-25462_0" function="internal">
        <lane id=":-25462_0_0" index="0" speed="5.29" length="5.50" width="3.50" shape="271.36,95.42 269.97,93.87 268.78,92.92 267.78,92.56 266.99,92.82"/>
        <lane id=":-25462_0_1" index="1" speed="7.16" length="11.01" width="3.50" shape="274.09,93.23 271.57,90.62 269.18,89.23 266.93,89.05 264.81,90.08"/>
        <lane id=":-25462_0_2" index="2" speed="8.65" length="16.60" width="3.50" shape="276.82,91.04 273.17,87.38 269.59,85.54 266.07,85.53 262.62,87.34"/>
        <lane id=":-25462_0_3" index="3" speed="9.92" length="22.22" width="3.50" shape="279.55,88.85 274.77,84.13 270.00,81.86 265.22,82.01 260.44,84.61"/>
    </edge>
    <edge id=":-25462_4" function="internal">
        <lane id=":-25462_4_0" index="0" speed="13.89" length="17.00" width="3.50" shape="280.28,82.22 266.99,92.82"/>
        <lane id=":-25462_4_1" index="1" speed="13.89" length="17.00" width="3.50" shape="278.10,79.48 264.81,90.08"/>
        <lane id=":-25462_4_2" index="2" speed="13.89" length="17.00" width="3.50" shape="275.91,76.74 262.62,87.34"/>
        <lane id=":-25462_4_3" index="3" speed="13.89" length="17.00" width="3.50" shape="273.73,74.01 260.44,84.61"/>
    </edge>
    <edge id=":10261232154_0" function="internal">
        <lane id=":10261232154_0_0" index="0" speed="13.89" length="0.30" width="3.50" shape="223.34,376.82 223.57,376.64"/>
        <lane id=":10261232154_0_1" index="1" speed="13.89" length="0.30" width="3.50" shape="225.52,379.56 225.75,379.37"/>
        <lane id=":10261232154_0_2" index="2" speed="13.89" length="0.30" width="3.50" shape="227.70,382.30 227.93,382.11"/>
        <lane id=":10261232154_0_3" index="3" speed="13.89" length="0.30" width="3.50" shape="229.88,385.03 230.12,384.85"/>
    </edge>
    <edge id=":10267739701_0" function="internal">
        <lane id=":10267739701_0_0" index="0" speed="13.89" length="0.30" width="3.50" shape="357.90,269.52 358.14,269.33"/>
        <lane id=":10267739701_0_1" index="1" speed="13.89" length="0.30" width="3.50" shape="360.09,272.25 360.32,272.07"/>
        <lane id=":10267739701_0_2" index="2" speed="13.89" length="0.30" width="3.50" shape="362.27,274.99 362.50,274.80"/>
        <lane id=":10267739701_0_3" index="3" speed="13.89" length="0.30" width="3.50" shape="364.45,277.72 364.69,277.54"/>
    </edge>
    <edge id=":122641670_0" function="internal">
        <lane id=":122641670_0_0" index="0" speed="13.89" length="0.10" width="3.50" shape="100.20,475.01 100.20,475.01"/>
        <lane id=":122641670_0_1" index="1" speed="13.89" length="0.10" width="3.50" shape="102.38,477.75 102.39,477.75"/>
        <lane id=":122641670_0_2" index="2" speed="13.89" length="0.10" width="3.50" shape="104.57,480.49 104.57,480.49"/>
        <lane id=":122641670_0_3" index="3" speed="13.89" length="0.10" width="3.50" shape="106.75,483.22 106.75,483.22"/>
    </edge>
    <edge id=":123396147_0" function="internal">
        <lane id=":123396147_0_0" index="0" speed="3.82" length="5.11" width="3.50" shape="554.53,634.80 554.67,636.37 554.27,637.26 553.31,637.47 551.81,637.00"/>
    </edge>
    <edge id=":1736499182_0" function="internal">
        <lane id=":1736499182_0_0" index="0" speed="6.11" length="7.70" width="3.50" shape="428.80,489.71 427.24,488.27 425.61,487.67 423.88,487.90 422.08,488.96"/>
        <lane id=":1736499182_0_1" index="1" speed="7.82" length="13.32" width="3.50" shape="431.52,487.51 428.84,485.03 426.00,483.98 423.02,484.39 419.89,486.23"/>
    </edge>
    <edge id=":1736499182_2" function="internal">
        <lane id=":1736499182_2_0" index="0" speed="3.82" length="5.11" width="3.50" shape="431.52,487.51 431.37,485.94 431.78,485.05 432.73,484.84 434.24,485.31"/>
    </edge>
    <edge id=":1736499182_3" function="internal">
        <lane id=":1736499182_3_0" index="0" speed="6.01" length="7.60" width="3.50" shape="437.70,476.51 436.24,478.01 435.64,479.60 435.87,481.30 436.95,483.10"/>
    </edge>
    <edge id=":1736499182_4" function="internal">
        <lane id=":1736499182_4_0" index="0" speed="13.89" length="19.96" width="3.50" shape="437.70,476.51 422.08,488.96"/>
        <lane id=":1736499182_4_1" index="1" speed="13.89" length="19.96" width="3.50" shape="435.52,473.77 419.89,486.23"/>
        <lane id=":1736499182_4_2" index="2" speed="13.89" length="19.96" width="3.50" shape="433.26,471.09 417.70,483.50"/>
        <lane id=":1736499182_4_3" index="3" speed="13.89" length="19.96" width="3.50" shape="431.13,468.31 415.51,480.77"/>
    </edge>
    <edge id=":1736499182_8" function="internal">
        <lane id=":1736499182_8_0" index="0" speed="13.89" length="20.39" width="3.50" shape="424.44,467.54 427.77,472.56 429.36,476.48 430.94,480.37 434.24,485.31"/>
    </edge>
    <edge id=":1736499182_9" function="internal">
        <lane id=":1736499182_9_0" index="0" speed="9.18" length="2.92" width="3.50" shape="421.71,469.73 423.20,472.24"/>
        <lane id=":1736499182_9_1" index="1" speed="7.78" length="2.90" width="3.50" shape="418.98,471.92 420.46,474.42"/>
        <lane id=":1736499182_9_2" index="2" speed="6.07" length="2.99" width="3.50" shape="416.25,474.11 417.32,475.91 417.44,476.80"/>
    </edge>
    <edge id=":1736499182_12" function="internal">
        <lane id=":1736499182_12_0" index="0" speed="9.18" length="16.02" width="3.50" shape="423.20,472.24 424.36,474.19 424.94,478.43 423.45,482.44 419.89,486.23"/>
    </edge>
    <edge id=":1736499182_13" function="internal">
        <lane id=":1736499182_13_0" index="0" speed="7.78" length="10.38" width="3.50" shape="420.46,474.42 420.84,475.05 421.24,478.02 420.20,480.84 417.70,483.50"/>
    </edge>
    <edge id=":1736499182_14" function="internal">
        <lane id=":1736499182_14_0" index="0" speed="6.07" length="4.65" width="3.50" shape="417.44,476.80 417.55,477.62 416.95,479.24 415.51,480.77"/>
    </edge>
    <edge id=":1736499199_0" function="internal">
        <lane id=":1736499199_0_0" index="0" speed="6.10" length="7.70" width="3.50" shape="329.91,568.51 328.38,567.07 326.76,566.47 325.03,566.71 323.20,567.77"/>
        <lane id=":1736499199_0_1" index="1" speed="7.81" length="13.34" width="3.50" shape="332.65,566.33 330.00,563.83 327.18,562.79 324.18,563.19 321.02,565.03"/>
        <lane id=":1736499199_0_2" index="2" speed="8.56" length="16.25" width="3.50" shape="332.65,566.33 329.05,562.64 325.54,560.73 322.14,560.62 318.84,562.29"/>
    </edge>
    <edge id=":1736499199_3" function="internal">
        <lane id=":1736499199_3_0" index="0" speed="13.89" length="20.54" width="3.50" shape="332.65,566.33 328.55,562.05 325.11,559.67 321.65,557.28 317.46,552.99"/>
        <lane id=":1736499199_3_1" index="1" speed="13.89" length="20.54" width="3.50" shape="332.65,566.33 320.17,550.78"/>
        <lane id=":1736499199_3_2" index="2" speed="13.89" length="20.54" width="3.50" shape="332.65,566.33 329.40,561.36 327.83,557.47 326.23,553.56 322.89,548.57"/>
        <lane id=":1736499199_3_3" index="3" speed="13.89" length="20.54" width="3.50" shape="332.65,566.33 329.86,561.07 329.29,556.49 328.65,551.85 325.60,546.36"/>
    </edge>
    <edge id=":1736499199_7" function="internal">
        <lane id=":1736499199_7_0" index="0" speed="3.82" length="1.76" width="3.50" shape="332.65,566.33 332.52,564.76 332.59,564.60"/>
    </edge>
    <edge id=":1736499199_16" function="internal">
        <lane id=":1736499199_16_0" index="0" speed="3.82" length="3.35" width="3.50" shape="332.59,564.60 332.93,563.87 333.88,563.67 335.39,564.14"/>
    </edge>
    <edge id=":1736499199_8" function="internal">
        <lane id=":1736499199_8_0" index="0" speed="6.04" length="7.58" width="3.50" shape="338.80,555.35 337.39,556.84 336.80,558.44 337.05,560.15 338.12,561.95"/>
        <lane id=":1736499199_8_1" index="1" speed="7.00" length="10.56" width="3.50" shape="338.80,555.35 336.19,557.79 334.75,560.07 334.48,562.19 335.39,564.14"/>
    </edge>
    <edge id=":1736499199_10" function="internal">
        <lane id=":1736499199_10_0" index="0" speed="13.89" length="19.96" width="3.50" shape="338.80,555.35 323.20,567.77"/>
        <lane id=":1736499199_10_1" index="1" speed="13.89" length="19.96" width="3.50" shape="336.64,552.60 321.02,565.03"/>
        <lane id=":1736499199_10_2" index="2" speed="13.89" length="19.96" width="3.50" shape="334.47,549.85 318.84,562.29"/>
        <lane id=":1736499199_10_3" index="3" speed="13.89" length="19.96" width="3.50" shape="332.30,547.10 316.67,559.55"/>
    </edge>
    <edge id=":1736499199_14" function="internal">
        <lane id=":1736499199_14_0" index="0" speed="7.06" length="10.61" width="3.50" shape="332.30,547.10 329.29,549.11 326.72,550.02 324.58,549.84 322.89,548.57"/>
        <lane id=":1736499199_14_1" index="1" speed="6.11" length="7.66" width="3.50" shape="332.30,547.10 330.49,548.16 328.77,548.38 327.14,547.79 325.60,546.36"/>
    </edge>
    <edge id=":1736513666_0" function="internal">
        <lane id=":1736513666_0_0" index="0" speed="10.39" length="24.56" width="3.50" shape="620.13,311.50 623.57,317.30 624.32,322.80 622.39,328.00 617.78,332.91"/>
        <lane id=":1736513666_0_1" index="1" speed="9.17" length="18.91" width="3.50" shape="617.41,313.70 620.05,318.16 620.63,322.39 619.14,326.40 615.60,330.17"/>
        <lane id=":1736513666_0_2" index="2" speed="8.53" length="16.18" width="3.50" shape="617.41,313.70 619.09,316.96 618.98,320.34 617.09,323.84 613.41,327.44"/>
        <lane id=":1736513666_0_3" index="3" speed="7.90" length="13.74" width="3.50" shape="617.41,313.70 618.13,315.77 617.34,318.29 615.04,321.27 611.22,324.71"/>
    </edge>
    <edge id=":1736513666_4" function="internal">
        <lane id=":1736513666_4_0" index="0" speed="3.82" length="5.11" width="3.50" shape="617.41,313.70 617.55,315.27 617.14,316.16 616.18,316.36 614.68,315.89"/>
    </edge>
    <edge id=":1736513671_0" function="internal">
        <lane id=":1736513671_0_0" index="0" speed="13.89" length="19.94" width="3.50" shape="526.11,412.00 513.63,396.48"/>
        <lane id=":1736513671_0_1" index="1" speed="13.89" length="19.94" width="3.50" shape="528.87,409.85 516.36,394.29"/>
    </edge>
    <edge id=":1736513671_2" function="internal">
        <lane id=":1736513671_2_0" index="0" speed="3.82" length="1.58" width="3.50" shape="528.87,409.85 528.74,408.28"/>
    </edge>
    <edge id=":1736513671_9" function="internal">
        <lane id=":1736513671_9_0" index="0" speed="3.82" length="3.53" width="3.50" shape="528.74,408.28 529.16,407.40 530.11,407.20 531.61,407.68"/>
    </edge>
    <edge id=":1736513671_3" function="internal">
        <lane id=":1736513671_3_0" index="0" speed="6.09" length="7.60" width="3.50" shape="535.08,398.85 533.67,400.36 533.08,401.97 533.30,403.68 534.35,405.49"/>
    </edge>
    <edge id=":1736513671_4" function="internal">
        <lane id=":1736513671_4_0" index="0" speed="9.84" length="21.86" width="3.50" shape="532.90,396.11 527.22,399.71 522.12,400.97 517.59,399.90 513.63,396.48"/>
        <lane id=":1736513671_4_1" index="1" speed="8.56" length="16.26" width="3.50" shape="530.72,393.38 526.37,396.19 522.53,397.28 519.19,396.65 516.36,394.29"/>
    </edge>
    <edge id=":1736513671_6" function="internal">
        <lane id=":1736513671_6_0" index="0" speed="13.89" length="20.00" width="3.50" shape="521.82,389.91 534.35,405.49"/>
        <lane id=":1736513671_6_1" index="1" speed="13.89" length="20.00" width="3.50" shape="519.09,392.10 531.61,407.68"/>
    </edge>
    <edge id=":1736513671_8" function="internal">
        <lane id=":1736513671_8_0" index="0" speed="3.82" length="1.58" width="3.50" shape="519.09,392.10 519.23,393.67"/>
    </edge>
    <edge id=":1736513671_10" function="internal">
        <lane id=":1736513671_10_0" index="0" speed="3.82" length="3.53" width="3.50" shape="519.23,393.67 518.82,394.56 517.86,394.76 516.36,394.29"/>
    </edge>
    <edge id=":1837240570_0" function="internal">
        <lane id=":1837240570_0_0" index="0" speed="13.89" length="20.13" width="3.50" shape="400.11,255.40 387.57,239.83"/>
        <lane id=":1837240570_0_1" index="1" speed="13.89" length="20.13" width="3.50" shape="402.84,253.21 390.30,237.63"/>
        <lane id=":1837240570_0_2" index="2" speed="13.89" length="20.13" width="3.50" shape="402.84,253.21 399.53,248.28 397.95,244.38 396.36,240.46 393.03,235.44"/>
    </edge>
    <edge id=":1837240570_3" function="internal">
        <lane id=":1837240570_3_0" index="0" speed="7.88" length="2.40" width="3.50" shape="402.84,253.21 402.09,251.14 402.15,250.95"/>
    </edge>
    <edge id=":1837240570_4" function="internal">
        <lane id=":1837240570_4_0" index="0" speed="3.82" length="1.69" width="3.50" shape="402.84,253.21 402.69,251.64 402.74,251.54"/>
    </edge>
    <edge id=":1837240570_15" function="internal">
        <lane id=":1837240570_15_0" index="0" speed="7.88" length="11.37" width="3.50" shape="402.15,250.95 402.88,248.61 405.18,245.63 409.02,242.19"/>
    </edge>
    <edge id=":1837240570_16" function="internal">
        <lane id=":1837240570_16_0" index="0" speed="3.82" length="3.42" width="3.50" shape="402.74,251.54 403.09,250.75 404.05,250.54 405.56,251.00"/>
    </edge>
    <edge id=":1837240570_5" function="internal">
        <lane id=":1837240570_5_0" index="0" speed="6.11" length="7.70" width="3.50" shape="395.75,233.24 397.29,234.68 398.93,235.28 400.65,235.05 402.47,233.98"/>
    </edge>
    <edge id=":1837240570_6" function="internal">
        <lane id=":1837240570_6_0" index="0" speed="13.89" length="20.15" width="3.50" shape="395.75,233.24 408.27,248.79"/>
        <lane id=":1837240570_6_1" index="1" speed="13.89" length="20.15" width="3.50" shape="395.75,233.24 397.72,236.57 399.46,240.68 401.80,245.51 405.56,251.00"/>
    </edge>
    <edge id=":1837240570_8" function="internal">
        <lane id=":1837240570_8_0" index="0" speed="3.82" length="1.69" width="3.50" shape="395.75,233.24 395.89,234.81 395.85,234.92"/>
    </edge>
    <edge id=":1837240570_17" function="internal">
        <lane id=":1837240570_17_0" index="0" speed="3.82" length="3.42" width="3.50" shape="395.85,234.92 395.49,235.70 394.53,235.91 393.03,235.44"/>
    </edge>
    <edge id=":1837240570_9" function="internal">
        <lane id=":1837240570_9_0" index="0" speed="6.04" length="7.64" width="3.50" shape="386.84,246.45 388.29,244.95 388.89,243.35 388.66,241.64 387.57,239.83"/>
    </edge>
    <edge id=":1837240570_10" function="internal">
        <lane id=":1837240570_10_0" index="0" speed="13.89" length="19.99" width="3.50" shape="386.84,246.45 402.47,233.98"/>
        <lane id=":1837240570_10_1" index="1" speed="13.89" length="19.99" width="3.50" shape="389.02,249.19 404.65,236.72"/>
        <lane id=":1837240570_10_2" index="2" speed="13.89" length="19.99" width="3.50" shape="391.20,251.93 406.84,239.46"/>
        <lane id=":1837240570_10_3" index="3" speed="13.89" length="19.99" width="3.50" shape="393.42,254.64 409.02,242.19"/>
    </edge>
    <edge id=":1837240570_14" function="internal">
        <lane id=":1837240570_14_0" index="0" speed="7.98" length="13.68" width="3.50" shape="393.42,254.64 397.66,251.74 401.10,250.17 403.73,249.92 405.56,251.00"/>
    </edge>
    <edge id=":1967655309_0" function="internal">
        <lane id=":1967655309_0_0" index="0" speed="13.89" length="0.30" width="3.50" shape="442.37,472.77 442.14,472.95"/>
        <lane id=":1967655309_0_1" index="1" speed="13.89" length="0.30" width="3.50" shape="440.18,470.04 439.95,470.22"/>
        <lane id=":1967655309_0_2" index="2" speed="13.89" length="0.30" width="3.50" shape="438.00,467.30 437.76,467.49"/>
        <lane id=":1967655309_0_3" index="3" speed="13.89" length="0.30" width="3.50" shape="435.82,464.56 435.58,464.76"/>
    </edge>
    <edge id=":1967750287_0" function="internal">
        <lane id=":1967750287_0_0" index="0" speed="13.89" length="0.10" width="3.50" shape="227.51,441.23 227.51,441.23"/>
        <lane id=":1967750287_0_1" index="1" speed="13.89" length="0.10" width="3.50" shape="230.23,439.04 230.23,439.04"/>
        <lane id=":1967750287_0_2" index="2" speed="13.89" length="0.10" width="3.50" shape="232.96,436.84 232.96,436.84"/>
        <lane id=":1967750287_0_3" index="3" speed="13.89" length="0.10" width="3.50" shape="235.69,434.65 235.69,434.65"/>
    </edge>
    <edge id=":2611822743_0" function="internal">
        <lane id=":2611822743_0_0" index="0" speed="13.89" length="2.50" width="3.50" shape="357.41,202.35 356.17,200.80"/>
        <lane id=":2611822743_0_1" index="1" speed="13.89" length="2.50" width="3.50" shape="360.14,200.16 358.89,198.61"/>
        <lane id=":2611822743_0_2" index="2" speed="13.89" length="2.50" width="3.50" shape="362.87,197.97 361.62,196.41"/>
        <lane id=":2611822743_0_3" index="3" speed="13.89" length="2.50" width="3.50" shape="362.87,197.97 364.35,194.22"/>
    </edge>
    <edge id=":2611822743_4" function="internal">
        <lane id=":2611822743_4_0" index="0" speed="3.82" length="5.11" width="3.50" shape="362.87,197.97 362.73,196.40 363.13,195.51 364.09,195.30 365.59,195.77"/>
    </edge>
    <edge id=":26666275_0" function="internal">
        <lane id=":26666275_0_0" index="0" speed="6.06" length="7.61" width="3.50" shape="182.89,159.87 181.46,161.39 180.86,163.00 181.10,164.70 182.16,166.50"/>
        <lane id=":26666275_0_1" index="1" speed="7.77" length="13.27" width="3.50" shape="180.71,157.13 178.22,159.78 177.17,162.59 177.58,165.56 179.44,168.69"/>
        <lane id=":26666275_0_2" index="2" speed="9.17" length="18.94" width="3.50" shape="178.53,154.40 174.97,158.18 173.48,162.18 174.06,166.42 176.71,170.89"/>
        <lane id=":26666275_0_3" index="3" speed="10.39" length="24.60" width="3.50" shape="176.35,151.66 171.72,156.57 169.79,161.78 170.54,167.28 173.98,173.08"/>
    </edge>
    <edge id=":26666275_4" function="internal">
        <lane id=":26666275_4_0" index="0" speed="9.92" length="22.22" width="3.50" shape="163.06,162.26 167.84,159.66 172.62,159.51 177.39,161.78 182.16,166.50"/>
        <lane id=":26666275_4_1" index="1" speed="8.65" length="16.61" width="3.50" shape="165.24,165.00 168.69,163.18 172.21,163.19 175.79,165.03 179.44,168.69"/>
        <lane id=":26666275_4_2" index="2" speed="7.16" length="11.02" width="3.50" shape="167.42,167.73 169.54,166.70 171.80,166.88 174.19,168.28 176.71,170.89"/>
        <lane id=":26666275_4_3" index="3" speed="5.30" length="5.51" width="3.50" shape="169.60,170.47 170.40,170.22 171.39,170.57 172.59,171.52 173.98,173.08"/>
    </edge>
    <edge id=":3299219872_0" function="internal">
        <lane id=":3299219872_0_0" index="0" speed="13.89" length="0.30" width="3.50" shape="472.47,345.33 472.29,345.09"/>
        <lane id=":3299219872_0_1" index="1" speed="13.89" length="0.30" width="3.50" shape="475.20,343.13 475.01,342.90"/>
    </edge>
    <edge id=":3299219872_2" function="internal">
        <lane id=":3299219872_2_0" index="0" speed="13.89" length="0.30" width="3.50" shape="480.47,338.51 480.66,338.75"/>
        <lane id=":3299219872_2_1" index="1" speed="13.89" length="0.30" width="3.50" shape="477.74,340.71 477.93,340.94"/>
    </edge>
    <edge id=":3898602818_0" function="internal">
        <lane id=":3898602818_0_0" index="0" speed="13.89" length="0.30" width="3.50" shape="441.70,307.09 441.51,306.85"/>
        <lane id=":3898602818_0_1" index="1" speed="13.89" length="0.30" width="3.50" shape="444.42,304.89 444.23,304.66"/>
    </edge>
    <edge id=":3898602818_2" function="internal">
        <lane id=":3898602818_2_0" index="0" speed="13.89" length="0.30" width="3.50" shape="449.69,300.27 449.87,300.50"/>
        <lane id=":3898602818_2_1" index="1" speed="13.89" length="0.30" width="3.50" shape="446.96,302.47 447.15,302.70"/>
    </edge>
    <edge id=":3898602843_0" function="internal">
        <lane id=":3898602843_0_0" index="0" speed="13.89" length="0.10" width="3.50" shape="367.37,396.65 367.37,396.65"/>
        <lane id=":3898602843_0_1" index="1" speed="13.89" length="0.10" width="3.50" shape="364.65,398.84 364.65,398.84"/>
        <lane id=":3898602843_0_2" index="2" speed="13.89" length="0.10" width="3.50" shape="361.92,401.04 361.92,401.04"/>
        <lane id=":3898602843_0_3" index="3" speed="13.89" length="0.10" width="3.50" shape="359.19,403.23 359.19,403.23"/>
    </edge>
    <edge id=":4019296931_0" function="internal">
        <lane id=":4019296931_0_0" index="0" speed="13.89" length="0.30" width="3.50" shape="446.74,512.02 446.56,511.79"/>
        <lane id=":4019296931_0_1" index="1" speed="13.89" length="0.30" width="3.50" shape="449.47,509.82 449.28,509.59"/>
    </edge>
    <edge id=":4019296931_2" function="internal">
        <lane id=":4019296931_2_0" index="0" speed="13.89" length="0.30" width="3.50" shape="454.74,505.20 454.92,505.44"/>
        <lane id=":4019296931_2_1" index="1" speed="13.89" length="0.30" width="3.50" shape="452.01,507.40 452.20,507.63"/>
    </edge>
    <edge id=":5544270951_0" function="internal">
        <lane id=":5544270951_0_0" index="0" speed="13.89" length="8.00" width="3.50" shape="219.60,213.02 224.61,219.25"/>
        <lane id=":5544270951_0_1" index="1" speed="13.89" length="8.00" width="3.50" shape="216.87,215.21 221.88,221.44"/>
        <lane id=":5544270951_0_2" index="2" speed="13.89" length="8.00" width="3.50" shape="214.14,217.40 219.16,223.64"/>
        <lane id=":5544270951_0_3" index="3" speed="13.89" length="8.00" width="3.50" shape="211.41,219.59 216.43,225.83"/>
    </edge>
    <edge id=":5766742578_0" function="internal">
        <lane id=":5766742578_0_0" index="0" speed="13.89" length="0.30" width="3.50" shape="349.02,592.24 348.84,592.01"/>
        <lane id=":5766742578_0_1" index="1" speed="13.89" length="0.30" width="3.50" shape="351.75,590.04 351.56,589.81"/>
    </edge>
    <edge id=":5766742578_2" function="internal">
        <lane id=":5766742578_2_0" index="0" speed="13.89" length="0.30" width="3.50" shape="357.01,585.42 357.20,585.66"/>
        <lane id=":5766742578_2_1" index="1" speed="13.89" length="0.30" width="3.50" shape="354.29,587.62 354.48,587.85"/>
    </edge>
    <edge id=":71987057_0" function="internal">
        <lane id=":71987057_0_0" index="0" speed="6.08" length="7.66" width="3.50" shape="298.36,310.90 299.91,312.35 301.54,312.97 303.24,312.75 305.03,311.69"/>
        <lane id=":71987057_0_1" index="1" speed="7.03" length="10.65" width="3.50" shape="298.36,310.90 300.87,313.55 303.18,315.01 305.30,315.30 307.23,314.41"/>
    </edge>
    <edge id=":71987057_2" function="internal">
        <lane id=":71987057_2_0" index="0" speed="13.89" length="20.00" width="3.50" shape="298.36,310.90 310.90,326.48"/>
        <lane id=":71987057_2_1" index="1" speed="13.89" length="20.00" width="3.50" shape="295.64,313.09 308.18,328.67"/>
        <lane id=":71987057_2_2" index="2" speed="13.89" length="20.00" width="3.50" shape="292.91,315.29 305.45,330.87"/>
        <lane id=":71987057_2_3" index="3" speed="13.89" length="20.00" width="3.50" shape="290.18,317.48 302.72,333.06"/>
    </edge>
    <edge id=":71987057_6" function="internal">
        <lane id=":71987057_6_0" index="0" speed="13.89" length="19.96" width="3.50" shape="289.45,324.10 305.03,311.69"/>
        <lane id=":71987057_6_1" index="1" speed="13.89" length="19.96" width="3.50" shape="291.63,326.84 307.23,314.41"/>
        <lane id=":71987057_6_2" index="2" speed="13.89" length="19.96" width="3.50" shape="293.82,329.58 309.43,317.14"/>
        <lane id=":71987057_6_3" index="3" speed="13.89" length="19.96" width="3.50" shape="296.00,332.31 311.63,319.86"/>
    </edge>
    <edge id=":71987057_10" function="internal">
        <lane id=":71987057_10_0" index="0" speed="7.05" length="10.69" width="3.50" shape="296.00,332.31 299.01,330.27 301.59,329.36 303.73,329.55 305.45,330.87"/>
        <lane id=":71987057_10_1" index="1" speed="6.10" length="7.72" width="3.50" shape="296.00,332.31 297.82,331.23 299.54,331.00 301.18,331.61 302.72,333.06"/>
    </edge>
    <edge id=":72017905_0" function="internal">
        <lane id=":72017905_0_0" index="0" speed="13.89" length="17.70" width="3.50" shape="496.55,174.67 485.90,161.42"/>
        <lane id=":72017905_0_1" index="1" speed="13.89" length="17.70" width="3.50" shape="496.55,174.67 493.77,170.37 492.57,166.96 491.39,163.55 488.62,159.23"/>
        <lane id=":72017905_0_2" index="2" speed="13.89" length="17.70" width="3.50" shape="499.28,172.48 496.49,168.18 495.30,164.77 494.11,161.35 491.35,157.03"/>
        <lane id=":72017905_0_3" index="3" speed="13.89" length="17.70" width="3.50" shape="499.28,172.48 496.83,167.72 496.66,163.67 496.51,159.61 494.08,154.84"/>
    </edge>
    <edge id=":72017905_4" function="internal">
        <lane id=":72017905_4_0" index="0" speed="3.82" length="0.27" width="3.50" shape="499.28,172.48 499.25,172.21"/>
    </edge>
    <edge id=":72017905_10" function="internal">
        <lane id=":72017905_10_0" index="0" speed="3.82" length="4.84" width="3.50" shape="499.25,172.21 499.13,170.91 499.54,170.02 500.49,169.81 502.00,170.27"/>
    </edge>
    <edge id=":72017905_5" function="internal">
        <lane id=":72017905_5_0" index="0" speed="6.06" length="7.62" width="3.50" shape="485.16,168.05 486.60,166.53 487.20,164.92 486.96,163.22 485.90,161.42"/>
        <lane id=":72017905_5_1" index="1" speed="7.77" length="13.28" width="3.50" shape="487.35,170.79 489.84,168.14 490.89,165.33 490.48,162.36 488.62,159.23"/>
        <lane id=":72017905_5_2" index="2" speed="9.17" length="18.94" width="3.50" shape="489.53,173.52 493.09,169.74 494.58,165.74 494.00,161.50 491.35,157.03"/>
    </edge>
    <edge id=":72017905_8" function="internal">
        <lane id=":72017905_8_0" index="0" speed="8.42" length="15.59" width="3.50" shape="491.71,176.26 497.00,172.18 500.92,169.46 503.50,168.08 504.71,168.06"/>
        <lane id=":72017905_8_1" index="1" speed="7.51" length="12.18" width="3.50" shape="491.71,176.26 495.80,173.14 498.88,171.10 500.94,170.15 502.00,170.27"/>
    </edge>
    <edge id=":73909660_0" function="internal">
        <lane id=":73909660_0_0" index="0" speed="13.89" length="20.16" width="3.50" shape="203.88,411.88 191.34,396.30"/>
        <lane id=":73909660_0_1" index="1" speed="13.89" length="20.16" width="3.50" shape="206.48,409.79 201.45,406.99 199.10,403.59 197.33,399.36 194.06,394.11"/>
        <lane id=":73909660_0_2" index="2" speed="13.89" length="20.16" width="3.50" shape="209.32,407.49 196.79,391.91"/>
        <lane id=":73909660_0_3" index="3" speed="13.89" length="20.16" width="3.50" shape="212.06,405.30 199.52,389.72"/>
    </edge>
    <edge id=":73909660_4" function="internal">
        <lane id=":73909660_4_0" index="0" speed="6.96" length="10.72" width="3.50" shape="212.06,405.30 209.94,402.37 209.00,399.83 209.22,397.69 210.61,395.92"/>
        <lane id=":73909660_4_1" index="1" speed="6.01" length="7.68" width="3.50" shape="212.06,405.30 210.94,403.54 210.69,401.84 211.31,400.22 212.79,398.66"/>
    </edge>
    <edge id=":73909660_6" function="internal">
        <lane id=":73909660_6_0" index="0" speed="6.05" length="7.60" width="3.50" shape="190.62,402.92 192.05,401.40 192.64,399.80 192.40,398.10 191.34,396.30"/>
        <lane id=":73909660_6_1" index="1" speed="7.01" length="10.58" width="3.50" shape="190.62,402.92 193.24,400.45 194.69,398.16 194.96,396.04 194.06,394.11"/>
    </edge>
    <edge id=":73909660_8" function="internal">
        <lane id=":73909660_8_0" index="0" speed="13.89" length="19.99" width="3.50" shape="190.62,402.92 206.24,390.45"/>
        <lane id=":73909660_8_1" index="1" speed="13.89" length="19.99" width="3.50" shape="192.80,405.65 208.43,393.19"/>
        <lane id=":73909660_8_2" index="2" speed="13.89" length="19.99" width="3.50" shape="194.98,408.39 210.61,395.92"/>
        <lane id=":73909660_8_3" index="3" speed="13.89" length="19.99" width="3.50" shape="197.16,411.13 212.79,398.66"/>
    </edge>
    <edge id=":9619955250_0" function="internal">
        <lane id=":9619955250_0_0" index="0" speed="13.89" length="0.10" width="3.50" shape="544.93,435.38 544.93,435.38"/>
        <lane id=":9619955250_0_1" index="1" speed="13.89" length="0.10" width="3.50" shape="547.66,433.19 547.66,433.19"/>
    </edge>
    <edge id=":9619955250_2" function="internal">
        <lane id=":9619955250_2_0" index="0" speed="13.89" length="0.10" width="3.50" shape="553.11,428.80 553.11,428.80"/>
        <lane id=":9619955250_2_1" index="1" speed="13.89" length="0.10" width="3.50" shape="550.38,430.99 550.38,430.99"/>
    </edge>
    <edge id=":9642835947_0" function="internal">
        <lane id=":9642835947_0_0" index="0" speed="13.89" length="0.30" width="3.50" shape="375.93,525.75 375.70,525.93"/>
        <lane id=":9642835947_0_1" index="1" speed="13.89" length="0.30" width="3.50" shape="373.75,523.01 373.52,523.20"/>
        <lane id=":9642835947_0_2" index="2" speed="13.89" length="0.30" width="3.50" shape="371.57,520.27 371.34,520.46"/>