<?xml version='1.0' encoding='UTF-8'?>
<edges>
  <edge id="-1100" from="72017905" to="-25462" numLanes="4" width="3.5" shape="138.123572,-260.315893 17.533430,-410.169675 17.033066,-410.727488 16.475941,-411.228617 15.868440,-411.667320 13.871439,-412.952647 13.248426,-413.309828 12.592097,-413.601297 11.909358,-413.823988 11.207397,-413.975556 10.493601,-414.054407 9.775482,-414.059709 9.060599,-413.991408 8.356475,-413.850222 7.670523,-413.637638 5.441126,-412.819185 4.752518,-412.523658 4.099445,-412.156215 3.489393,-411.721067 -84.671193,-341.423141 "/>
  <edge id="161687301" from="1736499199" to="1967750287" numLanes="4" width="3.5" shape="-30.357513,131.201926 -30.957985,130.454536 -30.963282,130.447952 -44.442190,113.712564 -45.488883,112.411909 -52.614258,103.557695 -81.817839,67.268547 -87.596467,60.087894 -95.392292,50.400644 -98.010476,47.147238 -101.677109,42.591012 -120.264082,19.494553 "/>
  <edge id="161688768" from="71987057" to="10267739701" numLanes="4" width="3.5" shape="-44.587599,-92.844244 -44.062392,-93.263024 -27.578720,-106.407121 8.349160,-135.055384 "/>
  <edge id="161688770" from="10261232154" to="71987057" numLanes="4" width="3.5" shape="-126.225910,-27.746389 -114.641040,-36.984191 -61.092511,-79.683555 -60.224832,-80.375439 "/>
  <edge id="161890281" from="1736499182" to="4019296931" numLanes="2" width="3.5" shape="75.570430,72.349750 76.136964,73.051910 85.242059,84.388914 93.421340,94.553062 "/>
  <edge id="-161890281" to="1736499182" from="4019296931" numLanes="2" width="3.5" shape="93.421340,94.553062 85.242059,84.388914 76.136964,73.051910 75.570430,72.349750 "/>
  <edge id="186070725" from="1736499182" to="9642835947" numLanes="4" width="3.5" shape="57.109071,65.341351 54.850614,67.146100 10.868939,102.198507 "/>
  <edge id="234665446" from="1736513666" to="1736513671" numLanes="4" width="3.5" shape="252.816675,-90.720341 252.117482,-90.162850 209.393047,-56.096958 172.276752,-26.500280 170.132314,-24.790864 "/>
  <edge id="323126705" from="1837240570" to="3898602818" numLanes="2" width="3.5" shape="46.885615,-161.946601 47.281499,-161.454776 88.380254,-110.380615 "/>
  <edge id="-323126705" to="1837240570" from="3898602818" numLanes="2" width="3.5" shape="88.380254,-110.380615 47.281499,-161.454776 46.885615,-161.946601 "/>
  <edge id="323126706" from="1837240570" to="2611822743" numLanes="3" width="3.5" shape="37.072129,-179.721029 6.920429,-217.190229 "/>
  <edge id="-323126706" to="1837240570" from="2611822743" numLanes="1" width="3.5" shape="6.920429,-217.190229 37.072129,-179.721029 "/>
  <edge id="382229043" from="3299219878" to="1967655309" numLanes="4" width="3.5" shape="158.176644,-15.259650 152.505616,-10.735833 134.815477,3.367491 77.298605,49.229267 "/>
  <edge id="382238932" from="72017905" to="1736513666" numLanes="2" width="3.5" shape="143.327908,-242.683096 144.114338,-241.705809 202.157658,-169.575629 237.971592,-125.069375 255.221588,-103.632554 258.730289,-99.272231 "/>
  <edge id="-382238932" to="72017905" from="1736513666" numLanes="2" width="3.5" shape="258.730289,-99.272231 255.221588,-103.632554 237.971592,-125.069375 202.157658,-169.575629 144.114338,-241.705809 143.327908,-242.683096 "/>
  <edge id="399179069" from="4019296931" to="123396147" numLanes="2" width="3.5" shape="93.421339,94.553063 138.001737,149.952104 161.461824,179.105624 188.408466,212.592011 195.852324,221.842469 "/>
  <edge id="-399179069" to="4019296931" from="123396147" numLanes="2" width="3.5" shape="195.852324,221.842469 188.408466,212.592011 161.461824,179.105624 138.001737,149.952104 93.421339,94.553063 "/>
  <edge id="404995536" from="3898602843" to="1736499182" numLanes="4" width="3.5" shape="0.520229,-9.726047 17.376639,11.220588 56.054207,59.263390 57.571667,61.153021 "/>
  <edge id="405164498" from="3299219872" to="1736513671" numLanes="2" width="3.5" shape="119.153078,-72.139967 120.834681,-70.050273 158.993074,-22.627064 160.405030,-20.873236 "/>
  <edge id="-405164498" to="3299219872" from="1736513671" numLanes="2" width="3.5" shape="160.405030,-20.873236 158.993074,-22.627064 120.834681,-70.050273 119.153078,-72.139967 "/>
  <edge id="438258030" from="1837240570" to="72017905" numLanes="4" width="3.5" shape="52.798048,-170.498128 55.160393,-172.381886 87.350568,-198.048910 94.646825,-203.866685 135.484696,-236.429168 "/>
  <edge id="543624990" from="71987057" to="3898602843" numLanes="4" width="3.5" shape="-55.954511,-79.903744 -55.669349,-79.549384 -35.762144,-54.812126 -13.192592,-26.766243 -9.781684,-22.527693 -7.483896,-19.672356 0.520233,-9.726041 "/>
  <edge id="580285684" from="73909660" to="26666275" numLanes="4" width="3.5" shape="-156.430834,-25.443733 -211.225166,-93.533808 -218.229405,-102.237193 -274.493975,-172.150422 -186.620787,-242.222266 "/>
  <edge id="603942759" from="1967750287" to="73909660" numLanes="4" width="3.5" shape="-120.264067,19.494573 -143.717395,-9.649108 -143.890379,-9.864050 "/>
  <edge id="603942760" from="122641670" to="73909660" numLanes="4" width="3.5" shape="-249.470130,70.530329 -240.489532,63.368978 -160.636874,-0.306837 -159.067710,-1.558107 "/>
  <edge id="606916054" from="1736499199" to="122641670" numLanes="4" width="3.5" shape="-41.735734,144.115547 -43.604632,145.598840 -43.654035,145.638415 -46.874611,148.242310 -127.945028,212.887601 -133.821943,217.573882 -150.687607,231.022673 -196.185544,267.303286 -240.028297,302.264403 -346.620593,169.816553 -357.314295,156.529107 -249.470094,70.530300 "/>
  <edge id="607576339" from="1967655309" to="1736499182" numLanes="4" width="3.5" shape="77.288969,49.236963 73.051266,52.628177 72.756468,52.862795 "/>
  <edge id="608741620" from="5766742578" to="1736499199" numLanes="2" width="3.5" shape="-4.294963,174.766326 -22.270401,152.463038 -23.295984,151.183856 "/>
  <edge id="-608741620" to="5766742578" from="1736499199" numLanes="2" width="3.5" shape="-23.295984,151.183856 -22.270401,152.463038 -4.294963,174.766326 "/>
  <edge id="608741621" from="-25381" to="5766742578" numLanes="2" width="3.5" shape="189.189881,229.513761 100.512666,300.221200 98.283243,301.039625 96.286227,299.754294 14.586888,198.229797 -4.294963,174.766327 "/>
  <edge id="-608741621" to="-25381" from="5766742578" numLanes="2" width="3.5" shape="-4.294963,174.766327 14.586888,198.229797 96.286227,299.754294 98.283243,301.039625 100.512666,300.221200 189.189881,229.513761 "/>
  <edge id="1046059231" from="3898602818" to="3299219872" numLanes="2" width="3.5" shape="88.380253,-110.380615 103.222033,-91.937124 119.153078,-72.139967 "/>
  <edge id="-1046059231" to="3898602818" from="3299219872" numLanes="2" width="3.5" shape="119.153078,-72.139967 103.222033,-91.937124 88.380253,-110.380615 "/>
  <edge id="1046059232" from="1736513671" to="9619955250" numLanes="2" width="3.5" shape="172.931045,-5.281618 173.077159,-5.099362 191.710141,18.025912 "/>
  <edge id="-1046059232" to="1736513671" from="9619955250" numLanes="2" width="3.5" shape="191.710141,18.025912 173.077159,-5.099362 172.931045,-5.281618 "/>
  <edge id="1049269630" from="9642835947" to="1736499199" numLanes="4" width="3.5" shape="10.867588,102.199582 -5.918188,115.584236 -25.438271,131.149915 -26.096167,131.674460 "/>
  <edge id="1121913941" from="73909660" to="10261232154" numLanes="4" width="3.5" shape="-143.430588,-14.027015 -142.549717,-14.729397 -126.225838,-27.746448 "/>
  <edge id="1122667815" from="10267739701" to="1837240570" numLanes="4" width="3.5" shape="8.349025,-135.055276 36.995228,-157.896098 37.161562,-158.028749 "/>
  <edge id="-1098_1" from="2611822743" to="-25462" numLanes="4" width="3.5" shape="8.393291,-220.942607 -76.402818,-326.313496 "/>
  <edge id="-1098_2" from="-25462" to="26666275" numLanes="4" width="3.5" shape="-97.962912,-330.824427 -182.057680,-263.767048 "/>
  <edge id="382219819_1" from="9619955250" to="-25381" numLanes="2" width="3.5" shape="191.710141,18.025912 205.066642,34.624040 242.609747,81.279113 273.506074,119.674462 292.512182,143.293778 293.336336,145.514289 292.047289,147.501311 202.481814,218.915435 "/>
  <edge id="-382219819_1" to="9619955250" from="-25381" numLanes="2" width="3.5" shape="202.481814,218.915435 292.047289,147.501311 293.336336,145.514289 292.512182,143.293778 273.506074,119.674462 242.609747,81.279113 205.066642,34.624040 191.710141,18.025912 "/>
  <edge id="543624991_1" from="26666275" to="5544270951" numLanes="4" width="3.5" shape="-184.695907,-239.880241 -182.027685,-236.564707 -147.262115,-193.364781 "/>
  <edge id="543624991_2" from="5544270951" to="71987057" numLanes="4" width="3.5" shape="-142.246511,-187.132336 -119.205646,-158.501420 -113.316839,-151.183877 -99.778240,-134.360527 -98.562987,-132.850425 -68.495010,-95.483975 "/>
</edges>
