<?xml version='1.0' encoding='UTF-8'?>
<nodes>
  <node id="-25381" x="197.008638" y="223.279417" shape="198.117833,213.442259 206.845796,224.388612 193.553922,234.986891 184.825841,224.040631 192.644656,217.806240 198.117833,213.442259 198.117833,213.442259"/>
  <node id="-25462" x="-88.125712" y="-329.715609" shape="-84.671193,-341.423141 -75.942927,-330.477028 -76.402822,-326.313572 -87.309724,-317.536358 -89.234530,-319.878408 -97.962913,-330.824427 -92.489845,-335.188665 -84.671193,-341.423141 -84.671193,-341.423141"/>
  <node id="10261232154" x="-130.590101" y="-33.219399"/>
  <node id="10267739701" x="3.985036" y="-140.528447"/>
  <node id="122641670" x="-253.834396" y="65.057379"/>
  <node id="123396147" x="195.852324" y="221.842468"/>
  <node id="1736499182" x="69.291049" y="64.567117" shape="68.487593,52.387032 72.756458,52.862804 81.474537,63.817032 81.018273,67.954183 70.122587,76.745317 65.848846,76.278276 57.109072,65.341350 57.571666,61.153020 68.487593,52.387032 68.487593,52.387032"/>
  <node id="1736499199" x="-29.55125" y="143.381828" shape="-30.357511,131.201929 -26.096170,131.674462 -17.368429,142.620993 -17.834564,146.805170 -28.757404,155.562543 -33.032379,155.081475 -41.735734,144.115546 -41.271419,139.970430 -30.357511,131.201929 -30.357511,131.201929"/>
  <node id="1736513666" x="264.999481" y="-91.481388" shape="264.183876,-103.660668 264.343975,-103.461709 270.453071,-95.869823 269.363447,-86.008199 261.544606,-79.773961 252.816673,-90.720340 253.276701,-94.883792 264.183876,-103.660668 264.183876,-103.660668"/>
  <node id="1736513671" x="166.676037" y="-13.083853" shape="165.857598,-25.262940 170.132316,-24.790865 178.858936,-13.843441 178.392610,-9.660124 167.469480,-0.903112 154.952463,-16.483530 165.857598,-25.262940 165.857598,-25.262940"/>
  <node id="1837240570" x="40.615275" y="-169.73652" shape="39.798899,-181.915276 44.069613,-181.444105 52.798048,-170.498128 52.338558,-166.335838 41.432671,-157.557363 37.161563,-158.028750 28.432543,-168.974261 28.891818,-173.138284 39.798899,-181.915276 39.798899,-181.915276"/>
  <node id="1967655309" x="81.662661" y="54.702384"/>
  <node id="1967750287" x="-125.717494" y="23.883209"/>
  <node id="2611822743" x="3.566779" y="-215.775011" shape="8.393286,-220.942682 9.020319,-220.163507 9.647247,-219.384430 -1.259833,-210.607438 -2.513616,-212.165468 8.393286,-220.942682 8.393286,-220.942682"/>
  <node id="26666275" x="-185.512074" y="-252.059479" shape="-182.057681,-263.767048 -173.329298,-252.821029 -173.789134,-248.657615 -184.695907,-239.880240 -186.620786,-242.222266 -195.349287,-253.168191 -189.876266,-257.532488 -182.057681,-263.767048 -182.057681,-263.767048"/>
  <node id="3299219872" x="119.153078" y="-72.139967"/>
  <node id="3299219878" x="162.541853" y="-9.787452"/>
  <node id="3898602818" x="88.380253" y="-110.380615"/>
  <node id="3898602843" x="5.973702" y="-14.114627"/>
  <node id="4019296931" x="93.421339" y="94.553063"/>
  <node id="5544270951" x="-139.300905" y="-194.637229" shape="-136.355323,-202.142130 -133.847495,-199.025887 -131.339690,-195.909652 -142.246511,-187.132337 -147.262116,-193.364781 -136.355323,-202.142130 -136.355323,-202.142130"/>
  <node id="5766742578" x="-4.294963" y="174.766326"/>
  <node id="71987057" x="-56.770393" y="-92.082996" shape="-57.587784,-104.260786 -53.315710,-103.790479 -44.587598,-92.844244 -45.047531,-88.680862 -55.954506,-79.903738 -60.224831,-80.375440 -68.953172,-91.321493 -68.495010,-95.483975 -57.587784,-104.260786 -57.587784,-104.260786"/>
  <node id="72017905" x="138.939406" y="-248.136632" shape="138.123572,-260.315894 144.392942,-252.525133 148.781443,-247.071597 137.874371,-238.294595 135.484696,-236.429168 126.756598,-247.375414 127.216559,-251.538817 138.123572,-260.315894 138.123572,-260.315894"/>
  <node id="73909660" x="-155.613382" y="-13.265695" shape="-156.430834,-25.443733 -152.158765,-24.973198 -143.430591,-14.027012 -143.890379,-9.864050 -154.796987,-1.086471 -159.067710,-1.558107 -167.796154,-12.504077 -167.337770,-16.666561 -156.430834,-25.443733 -156.430834,-25.443733"/>
  <node id="9619955250" x="191.710141" y="18.025912"/>
  <node id="9642835947" x="15.231707" y="107.67265"/>
</nodes>
