<?xml version="1.0" encoding="UTF-8"?>


<net version="1.9" junctionCornerDetail="5" limitTurnSpeed="5.50" xmlns:xsi="http://www.w3.org/2001/XMLSchema-instance" xsi:noNamespaceSchemaLocation="http://sumo.dlr.de/xsd/net_file.xsd">

    <location netOffset="366.12,407.07" convBoundary="0.00,0.00,659.07,718.10" origBoundary="-366.12,-407.07,292.95,311.03" projParameter="!"/>

    <edge id=":-25462_0" function="internal">
        <lane id=":-25462_0_0" index="0" speed="5.29" length="5.50" width="3.50" shape="280.17,88.43 278.78,86.88 277.58,85.92 276.59,85.57 275.79,85.82"/>
    </edge>
    <edge id=":-25462_1" function="internal">
        <lane id=":-25462_1_0" index="0" speed="9.17" length="18.93" width="3.50" shape="282.90,86.24 280.25,81.77 279.67,77.54 281.16,73.53 284.72,69.75"/>
    </edge>
    <edge id=":-25462_2" function="internal">
        <lane id=":-25462_2_0" index="0" speed="3.82" length="2.56" width="3.50" shape="282.90,86.24 282.76,84.67 283.16,83.78"/>
    </edge>
    <edge id=":-25462_11" function="internal">
        <lane id=":-25462_11_0" index="0" speed="3.82" length="2.56" width="3.50" shape="283.16,83.78 284.12,83.57 285.62,84.04"/>
    </edge>
    <edge id=":-25462_3" function="internal">
        <lane id=":-25462_3_0" index="0" speed="6.06" length="7.61" width="3.50" shape="289.08,75.22 287.65,76.74 287.05,78.35 287.29,80.06 288.35,81.85"/>
    </edge>
    <edge id=":-25462_4" function="internal">
        <lane id=":-25462_4_0" index="0" speed="13.89" length="17.00" width="3.50" shape="289.08,75.22 275.79,85.82"/>
        <lane id=":-25462_4_1" index="1" speed="13.89" length="17.00" width="3.50" shape="286.90,72.49 273.61,83.09"/>
    </edge>
    <edge id=":-25462_6" function="internal">
        <lane id=":-25462_6_0" index="0" speed="3.82" length="1.58" width="3.50" shape="286.90,72.49 285.33,72.62"/>
    </edge>
    <edge id=":-25462_12" function="internal">
        <lane id=":-25462_12_0" index="0" speed="3.82" length="3.53" width="3.50" shape="285.33,72.62 284.44,72.21 284.24,71.25 284.72,69.75"/>
    </edge>
    <edge id=":-25462_7" function="internal">
        <lane id=":-25462_7_0" index="0" speed="13.89" length="16.99" width="3.50" shape="269.25,77.61 282.54,67.02"/>
        <lane id=":-25462_7_1" index="1" speed="13.89" length="16.99" width="3.50" shape="271.43,80.35 284.72,69.75"/>
    </edge>
    <edge id=":-25462_9" function="internal">
        <lane id=":-25462_9_0" index="0" speed="8.65" length="3.90" width="3.50" shape="271.43,80.35 274.88,78.54"/>
    </edge>
    <edge id=":-25462_10" function="internal">
        <lane id=":-25462_10_0" index="0" speed="3.82" length="1.58" width="3.50" shape="271.43,80.35 273.00,80.22"/>
    </edge>
    <edge id=":-25462_13" function="internal">
        <lane id=":-25462_13_0" index="0" speed="8.65" length="12.70" width="3.50" shape="274.88,78.54 278.40,78.55 281.98,80.38 285.62,84.04"/>
    </edge>
    <edge id=":-25462_14" function="internal">
        <lane id=":-25462_14_0" index="0" speed="3.82" length="3.53" width="3.50" shape="273.00,80.22 273.89,80.63 274.09,81.58 273.61,83.09"/>
    </edge>
    <edge id=":10261232154_0" function="internal">
        <lane id=":10261232154_0_0" index="0" speed="13.89" length="0.30" width="3.50" shape="238.92,377.86 238.69,378.05"/>
        <lane id=":10261232154_0_1" index="1" speed="13.89" length="0.30" width="3.50" shape="236.74,375.12 236.50,375.31"/>
    </edge>
    <edge id=":10261232154_2" function="internal">
        <lane id=":10261232154_2_0" index="0" speed="13.89" length="0.30" width="3.50" shape="232.14,369.84 232.37,369.65"/>
        <lane id=":10261232154_2_1" index="1" speed="13.89" length="0.30" width="3.50" shape="234.32,372.58 234.56,372.39"/>
    </edge>
    <edge id=":10267739701_0" function="internal">
        <lane id=":10267739701_0_0" index="0" speed="13.89" length="0.10" width="3.50" shape="373.37,270.65 373.37,270.64"/>
        <lane id=":10267739701_0_1" index="1" speed="13.89" length="0.10" width="3.50" shape="371.19,267.91 371.19,267.91"/>
    </edge>
    <edge id=":10267739701_2" function="internal">
        <lane id=":10267739701_2_0" index="0" speed="13.89" length="0.10" width="3.50" shape="366.83,262.44 366.83,262.43"/>
        <lane id=":10267739701_2_1" index="1" speed="13.89" length="0.10" width="3.50" shape="369.01,265.17 369.01,265.17"/>
    </edge>
    <edge id=":122641670_0" function="internal">
        <lane id=":122641670_0_0" index="0" speed="13.89" length="0.43" width="3.50" shape="115.71,476.11 115.36,476.39"/>
        <lane id=":122641670_0_1" index="1" speed="13.89" length="0.43" width="3.50" shape="113.53,473.37 113.21,473.62"/>
    </edge>
    <edge id=":122641670_2" function="internal">
        <lane id=":122641670_2_0" index="0" speed="13.89" length="0.34" width="3.50" shape="108.91,468.10 109.17,467.90"/>
        <lane id=":122641670_2_1" index="1" speed="13.89" length="0.34" width="3.50" shape="111.06,470.86 111.35,470.63"/>
    </edge>
    <edge id=":123396147_0" function="internal">
        <lane id=":123396147_0_0" index="0" speed="13.89" length="16.99" width="3.50" shape="571.49,629.61 558.20,640.20"/>
        <lane id=":123396147_0_1" index="1" speed="13.89" length="16.99" width="3.50" shape="569.31,626.87 556.01,637.47"/>
    </edge>
    <edge id=":123396147_2" function="internal">
        <lane id=":123396147_2_0" index="0" speed="8.65" length="3.91" width="3.50" shape="569.31,626.87 565.85,628.69"/>
    </edge>
    <edge id=":123396147_3" function="internal">
        <lane id=":123396147_3_0" index="0" speed="3.82" length="1.58" width="3.50" shape="569.31,626.87 567.73,627.01"/>
    </edge>
    <edge id=":123396147_11" function="internal">
        <lane id=":123396147_11_0" index="0" speed="8.65" length="12.71" width="3.50" shape="565.85,628.69 562.33,628.68 558.75,626.84 555.11,623.18"/>
    </edge>
    <edge id=":123396147_12" function="internal">
        <lane id=":123396147_12_0" index="0" speed="3.82" length="3.53" width="3.50" shape="567.73,627.01 566.85,626.60 566.64,625.64 567.12,624.14"/>
    </edge>
    <edge id=":123396147_4" function="internal">
        <lane id=":123396147_4_0" index="0" speed="5.29" length="5.50" width="3.50" shape="560.57,618.80 561.96,620.35 563.15,621.31 564.14,621.65 564.94,621.40"/>
    </edge>
    <edge id=":123396147_5" function="internal">
        <lane id=":123396147_5_0" index="0" speed="9.17" length="18.92" width="3.50" shape="557.84,620.99 560.48,625.45 561.05,629.69 559.57,633.69 556.01,637.47"/>
    </edge>
    <edge id=":123396147_6" function="internal">
        <lane id=":123396147_6_0" index="0" speed="3.82" length="2.56" width="3.50" shape="557.84,620.99 557.97,622.56 557.57,623.45"/>
    </edge>
    <edge id=":123396147_13" function="internal">
        <lane id=":123396147_13_0" index="0" speed="3.82" length="2.56" width="3.50" shape="557.57,623.45 556.61,623.65 555.11,623.18"/>
    </edge>
    <edge id=":123396147_7" function="internal">
        <lane id=":123396147_7_0" index="0" speed="6.06" length="7.60" width="3.50" shape="551.65,631.99 553.08,630.48 553.67,628.87 553.44,627.16 552.38,625.37"/>
    </edge>
    <edge id=":123396147_8" function="internal">
        <lane id=":123396147_8_0" index="0" speed="13.89" length="17.00" width="3.50" shape="551.65,631.99 564.94,621.40"/>
        <lane id=":123396147_8_1" index="1" speed="13.89" length="17.00" width="3.50" shape="553.83,634.73 567.12,624.14"/>
    </edge>
    <edge id=":123396147_10" function="internal">
        <lane id=":123396147_10_0" index="0" speed="3.82" length="1.58" width="3.50" shape="553.83,634.73 555.40,634.59"/>
    </edge>
    <edge id=":123396147_14" function="internal">
        <lane id=":123396147_14_0" index="0" speed="3.82" length="3.53" width="3.50" shape="555.40,634.59 556.29,635.01 556.49,635.96 556.01,637.47"/>
    </edge>
    <edge id=":1736499182_0" function="internal">
        <lane id=":1736499182_0_0" index="0" speed="6.12" length="7.69" width="3.50" shape="437.60,482.71 436.05,481.28 434.42,480.68 432.69,480.92 430.88,481.98"/>
    </edge>
    <edge id=":1736499182_1" function="internal">
        <lane id=":1736499182_1_0" index="0" speed="13.89" length="20.01" width="3.50" shape="437.60,482.71 425.05,467.12"/>
        <lane id=":1736499182_1_1" index="1" speed="13.89" length="20.01" width="3.50" shape="440.33,480.52 427.78,464.93"/>
    </edge>
    <edge id=":1736499182_3" function="internal">
        <lane id=":1736499182_3_0" index="0" speed="9.12" length="5.41" width="3.50" shape="440.33,480.52 437.61,476.02 437.59,475.86"/>
    </edge>
    <edge id=":1736499182_4" function="internal">
        <lane id=":1736499182_4_0" index="0" speed="3.82" length="1.58" width="3.50" shape="440.33,480.52 440.18,478.94"/>
    </edge>
    <edge id=":1736499182_20" function="internal">
        <lane id=":1736499182_20_0" index="0" speed="9.12" length="13.61" width="3.50" shape="437.59,475.86 437.01,471.77 438.53,467.78 442.15,464.04"/>
    </edge>
    <edge id=":1736499182_21" function="internal">
        <lane id=":1736499182_21_0" index="0" speed="3.82" length="3.53" width="3.50" shape="440.18,478.94 440.59,478.05 441.54,477.84 443.05,478.32"/>
    </edge>
    <edge id=":1736499182_5" function="internal">
        <lane id=":1736499182_5_0" index="0" speed="6.00" length="7.54" width="3.50" shape="446.44,469.56 445.02,471.04 444.43,472.63 444.68,474.31 445.76,476.11"/>
    </edge>
    <edge id=":1736499182_6" function="internal">
        <lane id=":1736499182_6_0" index="0" speed="13.89" length="19.94" width="3.50" shape="446.44,469.56 430.88,481.98"/>
        <lane id=":1736499182_6_1" index="1" speed="13.89" length="19.94" width="3.50" shape="444.30,466.79 428.70,479.24"/>
    </edge>
    <edge id=":1736499182_8" function="internal">
        <lane id=":1736499182_8_0" index="0" speed="9.23" length="5.20" width="3.50" shape="444.30,466.79 439.79,469.37"/>
    </edge>
    <edge id=":1736499182_9" function="internal">
        <lane id=":1736499182_9_0" index="0" speed="3.82" length="1.58" width="3.50" shape="444.30,466.79 442.73,466.91"/>
    </edge>
    <edge id=":1736499182_22" function="internal">
        <lane id=":1736499182_22_0" index="0" speed="9.23" length="13.69" width="3.50" shape="439.79,469.37 435.53,469.92 431.53,468.44 427.78,464.93"/>
    </edge>
    <edge id=":1736499182_23" function="internal">
        <lane id=":1736499182_23_0" index="0" speed="3.82" length="3.53" width="3.50" shape="442.73,466.91 441.84,466.49 441.65,465.53 442.15,464.04"/>
    </edge>
    <edge id=":1736499182_10" function="internal">
        <lane id=":1736499182_10_0" index="0" speed="6.12" length="7.68" width="3.50" shape="433.25,460.56 434.77,461.98 436.39,462.57 438.13,462.35 439.97,461.30"/>
    </edge>
    <edge id=":1736499182_11" function="internal">
        <lane id=":1736499182_11_0" index="0" speed="13.89" length="19.97" width="3.50" shape="433.25,460.56 445.76,476.11"/>
        <lane id=":1736499182_11_1" index="1" speed="13.89" length="19.97" width="3.50" shape="430.52,462.75 443.05,478.32"/>
    </edge>
    <edge id=":1736499182_13" function="internal">
        <lane id=":1736499182_13_0" index="0" speed="9.18" length="5.20" width="3.50" shape="430.52,462.75 433.16,467.22"/>
    </edge>
    <edge id=":1736499182_14" function="internal">
        <lane id=":1736499182_14_0" index="0" speed="3.82" length="1.58" width="3.50" shape="430.52,462.75 430.65,464.32"/>
    </edge>
    <edge id=":1736499182_24" function="internal">
        <lane id=":1736499182_24_0" index="0" speed="9.18" length="13.74" width="3.50" shape="433.16,467.22 433.74,471.47 432.25,475.47 428.70,479.24"/>
    </edge>
    <edge id=":1736499182_25" function="internal">
        <lane id=":1736499182_25_0" index="0" speed="3.82" length="3.53" width="3.50" shape="430.65,464.32 430.24,465.21 429.29,465.41 427.78,464.93"/>
    </edge>
    <edge id=":1736499182_15" function="internal">
        <lane id=":1736499182_15_0" index="0" speed="6.07" length="7.63" width="3.50" shape="424.33,473.77 425.76,472.26 426.36,470.64 426.12,468.93 425.05,467.12"/>
    </edge>
    <edge id=":1736499182_16" function="internal">
        <lane id=":1736499182_16_0" index="0" speed="13.89" length="20.00" width="3.50" shape="424.33,473.77 439.97,461.30"/>
        <lane id=":1736499182_16_1" index="1" speed="13.89" length="20.00" width="3.50" shape="426.51,476.51 442.15,464.04"/>
    </edge>
    <edge id=":1736499182_18" function="internal">
        <lane id=":1736499182_18_0" index="0" speed="9.22" length="5.28" width="3.50" shape="426.51,476.51 430.97,473.89 431.08,473.88"/>
    </edge>
    <edge id=":1736499182_19" function="internal">
        <lane id=":1736499182_19_0" index="0" speed="3.82" length="1.58" width="3.50" shape="426.51,476.51 428.08,476.37"/>
    </edge>
    <edge id=":1736499182_26" function="internal">
        <lane id=":1736499182_26_0" index="0" speed="9.22" length="13.64" width="3.50" shape="431.08,473.88 435.21,473.32 439.24,474.80 443.05,478.32"/>
    </edge>
    <edge id=":1736499182_27" function="internal">
        <lane id=":1736499182_27_0" index="0" speed="3.82" length="3.53" width="3.50" shape="428.08,476.37 428.97,476.79 429.17,477.74 428.70,479.24"/>
    </edge>
    <edge id=":1736499199_0" function="internal">
        <lane id=":1736499199_0_0" index="0" speed="6.11" length="7.70" width="3.50" shape="338.72,561.54 337.18,560.09 335.55,559.48 333.82,559.70 332.01,560.77"/>
    </edge>
    <edge id=":1736499199_1" function="internal">
        <lane id=":1736499199_1_0" index="0" speed="13.89" length="19.95" width="3.50" shape="338.72,561.54 326.26,545.99"/>
        <lane id=":1736499199_1_1" index="1" speed="13.89" length="19.95" width="3.50" shape="341.45,559.35 328.96,543.76"/>
    </edge>
    <edge id=":1736499199_3" function="internal">
        <lane id=":1736499199_3_0" index="0" speed="9.16" length="5.34" width="3.50" shape="341.45,559.35 338.79,554.86 338.77,554.74"/>
    </edge>
    <edge id=":1736499199_4" function="internal">
        <lane id=":1736499199_4_0" index="0" speed="3.82" length="1.58" width="3.50" shape="341.45,559.35 341.31,557.77"/>
    </edge>
    <edge id=":1736499199_20" function="internal">
        <lane id=":1736499199_20_0" index="0" speed="9.16" length="13.64" width="3.50" shape="338.77,554.74 338.21,550.61 339.71,546.61 343.29,542.85"/>
    </edge>
    <edge id=":1736499199_21" function="internal">
        <lane id=":1736499199_21_0" index="0" speed="3.82" length="3.53" width="3.50" shape="341.31,557.77 341.72,556.88 342.68,556.68 344.18,557.15"/>
    </edge>
    <edge id=":1736499199_5" function="internal">
        <lane id=":1736499199_5_0" index="0" speed="6.05" length="7.62" width="3.50" shape="347.64,548.33 346.20,549.84 345.60,551.45 345.84,553.16 346.91,554.96"/>
    </edge>
    <edge id=":1736499199_6" function="internal">
        <lane id=":1736499199_6_0" index="0" speed="13.89" length="19.98" width="3.50" shape="347.64,548.33 332.01,560.77"/>
        <lane id=":1736499199_6_1" index="1" speed="13.89" length="19.98" width="3.50" shape="345.47,545.58 329.83,558.03"/>
    </edge>
    <edge id=":1736499199_8" function="internal">
        <lane id=":1736499199_8_0" index="0" speed="9.24" length="5.14" width="3.50" shape="345.47,545.58 341.03,548.16"/>
    </edge>
    <edge id=":1736499199_9" function="internal">
        <lane id=":1736499199_9_0" index="0" speed="3.82" length="1.58" width="3.50" shape="345.47,545.58 343.90,545.72"/>
    </edge>
    <edge id=":1736499199_22" function="internal">
        <lane id=":1736499199_22_0" index="0" speed="9.24" length="13.72" width="3.50" shape="341.03,548.16 336.79,548.71 332.77,547.25 328.96,543.76"/>
    </edge>
    <edge id=":1736499199_23" function="internal">
        <lane id=":1736499199_23_0" index="0" speed="3.82" length="3.53" width="3.50" shape="343.90,545.72 343.01,545.31 342.81,544.35 343.29,542.85"/>
    </edge>
    <edge id=":1736499199_10" function="internal">
        <lane id=":1736499199_10_0" index="0" speed="6.13" length="7.66" width="3.50" shape="334.40,539.36 335.95,540.78 337.59,541.38 339.31,541.15 341.11,540.11"/>
    </edge>
    <edge id=":1736499199_11" function="internal">
        <lane id=":1736499199_11_0" index="0" speed="13.89" length="19.99" width="3.50" shape="334.40,539.36 346.91,554.96"/>
        <lane id=":1736499199_11_1" index="1" speed="13.89" length="19.99" width="3.50" shape="331.67,541.55 344.18,557.15"/>
    </edge>
    <edge id=":1736499199_13" function="internal">
        <lane id=":1736499199_13_0" index="0" speed="9.14" length="5.40" width="3.50" shape="331.67,541.55 334.36,545.98 334.39,546.20"/>
    </edge>
    <edge id=":1736499199_14" function="internal">
        <lane id=":1736499199_14_0" index="0" speed="3.82" length="1.58" width="3.50" shape="331.67,541.55 331.82,543.12"/>
    </edge>
    <edge id=":1736499199_24" function="internal">
        <lane id=":1736499199_24_0" index="0" speed="9.14" length="13.58" width="3.50" shape="334.39,546.20 334.95,550.20 333.44,554.22 329.83,558.03"/>
    </edge>
    <edge id=":1736499199_25" function="internal">
        <lane id=":1736499199_25_0" index="0" speed="3.82" length="3.53" width="3.50" shape="331.82,543.12 331.42,544.02 330.47,544.23 328.96,543.76"/>
    </edge>
    <edge id=":1736499199_15" function="internal">
        <lane id=":1736499199_15_0" index="0" speed="6.02" length="7.57" width="3.50" shape="325.47,552.55 326.92,551.02 327.54,549.42 327.32,547.74 326.26,545.99"/>
    </edge>
    <edge id=":1736499199_16" function="internal">
        <lane id=":1736499199_16_0" index="0" speed="13.89" length="19.99" width="3.50" shape="325.47,552.55 341.11,540.11"/>
        <lane id=":1736499199_16_1" index="1" speed="13.89" length="19.99" width="3.50" shape="327.65,555.29 343.29,542.85"/>
    </edge>
    <edge id=":1736499199_18" function="internal">
        <lane id=":1736499199_18_0" index="0" speed="9.21" length="5.30" width="3.50" shape="327.65,555.29 332.12,552.67 332.23,552.65"/>
    </edge>
    <edge id=":1736499199_19" function="internal">
        <lane id=":1736499199_19_0" index="0" speed="3.82" length="1.58" width="3.50" shape="327.65,555.29 329.22,555.16"/>
    </edge>
    <edge id=":1736499199_26" function="internal">
        <lane id=":1736499199_26_0" index="0" speed="9.21" length="13.66" width="3.50" shape="332.23,552.65 336.36,552.11 340.39,553.60 344.18,557.15"/>
    </edge>
    <edge id=":1736499199_27" function="internal">
        <lane id=":1736499199_27_0" index="0" speed="3.82" length="3.53" width="3.50" shape="329.22,555.16 330.11,555.57 330.31,556.53 329.83,558.03"/>
    </edge>
    <edge id=":1736513666_0" function="internal">
        <lane id=":1736513666_0_0" index="0" speed="9.37" length="19.82" width="3.50" shape="630.81,306.82 633.58,311.50 634.18,315.93 632.62,320.12 628.89,324.08"/>
        <lane id=":1736513666_0_1" index="1" speed="8.01" length="14.16" width="3.50" shape="628.08,309.01 630.06,312.35 630.49,315.52 629.38,318.52 626.71,321.34"/>
    </edge>
    <edge id=":1736513666_2" function="internal">
        <lane id=":1736513666_2_0" index="0" speed="4.08" length="2.83" width="3.50" shape="622.35,315.87 622.88,315.30 623.11,314.70 623.02,314.07 622.62,313.40"/>
        <lane id=":1736513666_2_1" index="1" speed="6.35" length="8.49" width="3.50" shape="624.53,318.60 626.13,316.91 626.80,315.11 626.54,313.21 625.35,311.21"/>
    </edge>
    <edge id=":1736513671_0" function="internal">
        <lane id=":1736513671_0_0" index="0" speed="6.08" length="7.66" width="3.50" shape="534.93,405.03 533.42,403.60 531.80,403.01 530.08,403.25 528.25,404.33"/>
    </edge>
    <edge id=":1736513671_1" function="internal">
        <lane id=":1736513671_1_0" index="0" speed="13.89" length="19.97" width="3.50" shape="534.93,405.03 522.43,389.48"/>
        <lane id=":1736513671_1_1" index="1" speed="13.89" length="19.97" width="3.50" shape="537.68,402.86 525.16,387.29"/>
    </edge>
    <edge id=":1736513671_3" function="internal">
        <lane id=":1736513671_3_0" index="0" speed="9.19" length="5.18" width="3.50" shape="537.68,402.86 535.07,398.39"/>
    </edge>
    <edge id=":1736513671_4" function="internal">
        <lane id=":1736513671_4_0" index="0" speed="3.82" length="1.58" width="3.50" shape="537.68,402.86 537.55,401.29"/>
    </edge>
    <edge id=":1736513671_20" function="internal">
        <lane id=":1736513671_20_0" index="0" speed="9.19" length="13.70" width="3.50" shape="535.07,398.39 534.51,394.15 535.99,390.15 539.53,386.38"/>
    </edge>
    <edge id=":1736513671_21" function="internal">
        <lane id=":1736513671_21_0" index="0" speed="3.82" length="3.53" width="3.50" shape="537.55,401.29 537.96,400.41 538.92,400.20 540.42,400.69"/>
    </edge>
    <edge id=":1736513671_5" function="internal">
        <lane id=":1736513671_5_0" index="0" speed="6.08" length="7.61" width="3.50" shape="543.89,391.86 542.47,393.37 541.87,394.98 542.10,396.69 543.15,398.50"/>
    </edge>
    <edge id=":1736513671_6" function="internal">
        <lane id=":1736513671_6_0" index="0" speed="13.89" length="20.00" width="3.50" shape="543.89,391.86 528.25,404.33"/>
        <lane id=":1736513671_6_1" index="1" speed="13.89" length="20.00" width="3.50" shape="541.71,389.12 526.07,401.59"/>
    </edge>
    <edge id=":1736513671_8" function="internal">
        <lane id=":1736513671_8_0" index="0" speed="9.21" length="5.31" width="3.50" shape="541.71,389.12 537.24,391.75 537.12,391.77"/>
    </edge>
    <edge id=":1736513671_9" function="internal">
        <lane id=":1736513671_9_0" index="0" speed="3.82" length="1.58" width="3.50" shape="541.71,389.12 540.14,389.26"/>
    </edge>
    <edge id=":1736513671_22" function="internal">
        <lane id=":1736513671_22_0" index="0" speed="9.21" length="13.66" width="3.50" shape="537.12,391.77 532.99,392.33 528.96,390.84 525.16,387.29"/>
    </edge>
    <edge id=":1736513671_23" function="internal">
        <lane id=":1736513671_23_0" index="0" speed="3.82" length="3.53" width="3.50" shape="540.14,389.26 539.25,388.84 539.05,387.89 539.53,386.38"/>
    </edge>
    <edge id=":1736513671_10" function="internal">
        <lane id=":1736513671_10_0" index="0" speed="6.11" length="7.72" width="3.50" shape="530.61,382.90 532.16,384.35 533.80,384.95 535.52,384.72 537.34,383.65"/>
    </edge>
    <edge id=":1736513671_11" function="internal">
        <lane id=":1736513671_11_0" index="0" speed="13.89" length="20.01" width="3.50" shape="530.61,382.90 543.15,398.50"/>
        <lane id=":1736513671_11_1" index="1" speed="13.89" length="20.01" width="3.50" shape="527.89,385.10 540.42,400.69"/>
    </edge>
    <edge id=":1736513671_13" function="internal">
        <lane id=":1736513671_13_0" index="0" speed="9.17" length="5.32" width="3.50" shape="527.89,385.10 530.55,389.57 530.56,389.69"/>
    </edge>
    <edge id=":1736513671_14" function="internal">
        <lane id=":1736513671_14_0" index="0" speed="3.82" length="1.58" width="3.50" shape="527.89,385.10 528.03,386.67"/>
    </edge>
    <edge id=":1736513671_24" function="internal">
        <lane id=":1736513671_24_0" index="0" speed="9.17" length="13.63" width="3.50" shape="530.56,389.69 531.13,393.81 529.64,397.82 526.07,401.59"/>
    </edge>
    <edge id=":1736513671_25" function="internal">
        <lane id=":1736513671_25_0" index="0" speed="3.82" length="3.53" width="3.50" shape="528.03,386.67 527.62,387.56 526.66,387.76 525.16,387.29"/>
    </edge>
    <edge id=":1736513671_15" function="internal">
        <lane id=":1736513671_15_0" index="0" speed="6.05" length="7.61" width="3.50" shape="521.72,396.11 523.14,394.60 523.74,392.99 523.50,391.28 522.43,389.48"/>
    </edge>
    <edge id=":1736513671_16" function="internal">
        <lane id=":1736513671_16_0" index="0" speed="13.89" length="19.99" width="3.50" shape="521.72,396.11 537.34,383.65"/>
        <lane id=":1736513671_16_1" index="1" speed="13.89" length="19.99" width="3.50" shape="523.89,398.85 539.53,386.38"/>
    </edge>
    <edge id=":1736513671_18" function="internal">
        <lane id=":1736513671_18_0" index="0" speed="9.19" length="5.23" width="3.50" shape="523.89,398.85 528.40,396.21"/>
    </edge>
    <edge id=":1736513671_19" function="internal">
        <lane id=":1736513671_19_0" index="0" speed="3.82" length="1.58" width="3.50" shape="523.89,398.85 525.46,398.72"/>
    </edge>
    <edge id=":1736513671_26" function="internal">
        <lane id=":1736513671_26_0" index="0" speed="9.19" length="13.75" width="3.50" shape="528.40,396.21 532.66,395.63 536.66,397.13 540.42,400.69"/>
    </edge>
    <edge id=":1736513671_27" function="internal">
        <lane id=":1736513671_27_0" index="0" speed="3.82" length="3.53" width="3.50" shape="525.46,398.72 526.35,399.13 526.55,400.09 526.07,401.59"/>
    </edge>
    <edge id=":1837240570_0" function="internal">
        <lane id=":1837240570_0_0" index="0" speed="6.05" length="7.66" width="3.50" shape="408.90,248.39 407.36,246.93 405.74,246.31 404.04,246.54 402.26,247.61"/>
    </edge>
    <edge id=":1837240570_1" function="internal">
        <lane id=":1837240570_1_0" index="0" speed="13.89" length="19.98" width="3.50" shape="408.90,248.39 396.37,232.83"/>
        <lane id=":1837240570_1_1" index="1" speed="13.89" length="19.98" width="3.50" shape="411.64,246.21 399.10,230.64"/>
    </edge>
    <edge id=":1837240570_3" function="internal">
        <lane id=":1837240570_3_0" index="0" speed="9.18" length="5.19" width="3.50" shape="411.64,246.21 409.01,241.73"/>
    </edge>
    <edge id=":1837240570_4" function="internal">
        <lane id=":1837240570_4_0" index="0" speed="3.82" length="1.58" width="3.50" shape="411.64,246.21 411.50,244.64"/>
    </edge>
    <edge id=":1837240570_20" function="internal">
        <lane id=":1837240570_20_0" index="0" speed="9.18" length="13.71" width="3.50" shape="409.01,241.73 408.44,237.49 409.92,233.49 413.46,229.73"/>
    </edge>
    <edge id=":1837240570_21" function="internal">
        <lane id=":1837240570_21_0" index="0" speed="3.82" length="3.53" width="3.50" shape="411.50,244.64 411.91,243.75 412.87,243.54 414.37,244.02"/>
    </edge>
    <edge id=":1837240570_5" function="internal">
        <lane id=":1837240570_5_0" index="0" speed="6.06" length="7.59" width="3.50" shape="417.82,235.20 416.40,236.72 415.81,238.32 416.04,240.03 417.10,241.83"/>
    </edge>
    <edge id=":1837240570_6" function="internal">
        <lane id=":1837240570_6_0" index="0" speed="13.89" length="19.93" width="3.50" shape="417.82,235.20 402.26,247.61"/>
        <lane id=":1837240570_6_1" index="1" speed="13.89" length="19.93" width="3.50" shape="415.64,232.47 400.03,244.91"/>
    </edge>
    <edge id=":1837240570_8" function="internal">
        <lane id=":1837240570_8_0" index="0" speed="9.21" length="5.31" width="3.50" shape="415.64,232.47 411.16,235.10 411.05,235.11"/>
    </edge>
    <edge id=":1837240570_9" function="internal">
        <lane id=":1837240570_9_0" index="0" speed="3.82" length="1.58" width="3.50" shape="415.64,232.47 414.07,232.60"/>
    </edge>
    <edge id=":1837240570_22" function="internal">
        <lane id=":1837240570_22_0" index="0" speed="9.21" length="13.65" width="3.50" shape="411.05,235.11 406.91,235.67 402.89,234.19 399.10,230.64"/>
    </edge>
    <edge id=":1837240570_23" function="internal">
        <lane id=":1837240570_23_0" index="0" speed="3.82" length="3.53" width="3.50" shape="414.07,232.60 413.18,232.19 412.98,231.23 413.46,229.73"/>
    </edge>
    <edge id=":1837240570_10" function="internal">
        <lane id=":1837240570_10_0" index="0" speed="6.11" length="7.71" width="3.50" shape="404.55,226.25 406.09,227.69 407.73,228.30 409.46,228.06 411.28,227.00"/>
    </edge>
    <edge id=":1837240570_11" function="internal">
        <lane id=":1837240570_11_0" index="0" speed="13.89" length="20.00" width="3.50" shape="404.55,226.25 417.10,241.83"/>
        <lane id=":1837240570_11_1" index="1" speed="13.89" length="20.00" width="3.50" shape="401.83,228.45 414.37,244.02"/>
    </edge>
    <edge id=":1837240570_13" function="internal">
        <lane id=":1837240570_13_0" index="0" speed="9.20" length="5.23" width="3.50" shape="401.83,228.45 404.43,232.86 404.45,232.96"/>
    </edge>
    <edge id=":1837240570_14" function="internal">
        <lane id=":1837240570_14_0" index="0" speed="3.82" length="1.58" width="3.50" shape="401.83,228.45 401.97,230.02"/>
    </edge>
    <edge id=":1837240570_24" function="internal">
        <lane id=":1837240570_24_0" index="0" speed="9.20" length="13.61" width="3.50" shape="404.45,232.96 405.00,237.07 403.54,241.09 400.03,244.91"/>
    </edge>
    <edge id=":1837240570_25" function="internal">
        <lane id=":1837240570_25_0" index="0" speed="3.82" length="3.53" width="3.50" shape="401.97,230.02 401.56,230.91 400.60,231.11 399.10,230.64"/>
    </edge>
    <edge id=":1837240570_15" function="internal">
        <lane id=":1837240570_15_0" index="0" speed="6.09" length="7.57" width="3.50" shape="395.64,239.46 397.05,237.91 397.64,236.29 397.41,234.60 396.37,232.83"/>
    </edge>
    <edge id=":1837240570_16" function="internal">
        <lane id=":1837240570_16_0" index="0" speed="13.89" length="20.00" width="3.50" shape="395.64,239.46 411.28,227.00"/>
        <lane id=":1837240570_16_1" index="1" speed="13.89" length="20.00" width="3.50" shape="397.82,242.20 413.46,229.73"/>
    </edge>
    <edge id=":1837240570_18" function="internal">
        <lane id=":1837240570_18_0" index="0" speed="9.16" length="5.46" width="3.50" shape="397.82,242.20 402.27,239.49 402.52,239.45"/>
    </edge>
    <edge id=":1837240570_19" function="internal">
        <lane id=":1837240570_19_0" index="0" speed="3.82" length="1.58" width="3.50" shape="397.82,242.20 399.39,242.05"/>
    </edge>
    <edge id=":1837240570_26" function="internal">