<?xml version="1.0" encoding="UTF-8"?>

<net version="1.9" junctionCornerDetail="5" limitTurnSpeed="5.50" xmlns:xsi="http://www.w3.org/2001/XMLSchema-instance" xsi:noNamespaceSchemaLocation="http://sumo.dlr.de/xsd/net_file.xsd">

    <location netOffset="301.62,318.51" convBoundary="0.00,0.00,608.74,638.07" origBoundary="-309.63,-326.51,307.21,319.60" projParameter="!"/>

    <edge id=":-59514_0" function="internal">
        <lane id=":-59514_0_0" index="0" speed="10.65" length="25.82" width="4.00" shape="-5.95,10.03 -4.98,3.01 -2.00,-1.99 3.00,-4.99 10.02,-5.97"/>
        <lane id=":-59514_0_1" index="1" speed="9.29" length="19.34" width="4.00" shape="-1.95,10.01 -1.23,4.75 1.01,1.01 4.75,-1.24 10.01,-1.97"/>
        <lane id=":-59514_0_2" index="2" speed="7.70" length="12.85" width="4.00" shape="2.05,9.99 2.53,6.50 4.01,4.01 6.50,2.52 9.99,2.03"/>
        <lane id=":-59514_0_3" index="3" speed="5.67" length="6.37" width="4.00" shape="6.05,9.97 6.28,8.24 7.02,7.01 8.25,6.27 9.98,6.03"/>
    </edge>
    <edge id=":-59526_0" function="internal">
        <lane id=":-59526_0_0" index="0" speed="13.89" length="20.00" width="4.00" shape="-5.07,205.78 -5.16,185.78"/>
        <lane id=":-59526_0_1" index="1" speed="13.89" length="20.00" width="4.00" shape="-1.07,205.76 -1.16,185.76"/>
        <lane id=":-59526_0_2" index="2" speed="13.89" length="20.00" width="4.00" shape="2.93,205.74 2.84,185.74"/>
        <lane id=":-59526_0_3" index="3" speed="13.89" length="20.00" width="4.00" shape="6.93,205.73 6.84,185.73"/>
    </edge>
    <edge id=":-59526_4" function="internal">
        <lane id=":-59526_4_0" index="0" speed="8.82" length="17.29" width="4.00" shape="6.93,205.73 7.15,198.74 7.88,193.76 9.13,190.77 10.90,189.78"/>
        <lane id=":-59526_4_1" index="1" speed="7.87" length="13.51" width="4.00" shape="6.93,205.73 7.16,200.49 7.89,196.76 9.14,194.52 10.89,193.78"/>
        <lane id=":-59526_4_2" index="2" speed="6.82" length="9.83" width="4.00" shape="6.93,205.73 7.16,202.24 7.90,199.76 9.14,198.27 10.88,197.78"/>
        <lane id=":-59526_4_3" index="3" speed="5.67" length="6.37" width="4.00" shape="6.93,205.73 7.17,203.99 7.90,202.76 9.14,202.02 10.87,201.78"/>
    </edge>
    <edge id=":-59528_0" function="internal">
        <lane id=":-59528_0_0" index="0" speed="13.89" length="20.00" width="4.00" shape="-3.89,467.44 -3.98,447.44"/>
        <lane id=":-59528_0_1" index="1" speed="13.89" length="20.00" width="4.00" shape="0.11,467.42 0.02,447.42"/>
        <lane id=":-59528_0_2" index="2" speed="13.89" length="20.00" width="4.00" shape="4.11,467.40 4.02,447.40"/>
        <lane id=":-59528_0_3" index="3" speed="13.89" length="20.00" width="4.00" shape="8.11,467.38 8.02,447.38"/>
    </edge>
    <edge id=":-59528_4" function="internal">
        <lane id=":-59528_4_0" index="0" speed="8.82" length="17.29" width="4.00" shape="8.11,467.38 8.33,460.40 9.06,455.42 10.31,452.43 12.08,451.44"/>
        <lane id=":-59528_4_1" index="1" speed="7.87" length="13.51" width="4.00" shape="8.11,467.38 8.34,462.15 9.07,458.42 10.32,456.18 12.07,455.44"/>
        <lane id=":-59528_4_2" index="2" speed="6.82" length="9.83" width="4.00" shape="8.11,467.38 8.34,463.90 9.08,461.42 10.32,459.93 12.06,459.44"/>
        <lane id=":-59528_4_3" index="3" speed="5.67" length="6.37" width="4.00" shape="8.11,467.38 8.35,465.65 9.08,464.42 10.32,463.68 12.05,463.44"/>
    </edge>
    <edge id=":-59555_0" function="internal">
        <lane id=":-59555_0_0" index="0" speed="5.67" length="6.37" width="4.00" shape="205.89,623.06 207.62,622.82 208.85,622.08 209.59,620.85 209.83,619.12"/>
        <lane id=":-59555_0_1" index="1" speed="6.82" length="9.83" width="4.00" shape="205.89,623.06 209.37,622.82 211.85,622.08 213.34,620.84 213.83,619.10"/>
        <lane id=":-59555_0_2" index="2" speed="7.87" length="13.51" width="4.00" shape="205.89,623.06 211.12,622.82 214.85,622.08 217.09,620.83 217.83,619.08"/>
        <lane id=":-59555_0_3" index="3" speed="8.82" length="17.29" width="4.00" shape="205.89,623.06 212.87,622.83 217.85,622.08 220.84,620.83 221.83,619.06"/>
    </edge>
    <edge id=":-59555_4" function="internal">
        <lane id=":-59555_4_0" index="0" speed="13.89" length="20.00" width="4.00" shape="205.89,623.06 225.89,623.11"/>
        <lane id=":-59555_4_1" index="1" speed="13.89" length="20.00" width="4.00" shape="205.88,627.06 225.88,627.11"/>
        <lane id=":-59555_4_2" index="2" speed="13.89" length="20.00" width="4.00" shape="205.87,631.06 225.87,631.11"/>
        <lane id=":-59555_4_3" index="3" speed="13.89" length="20.00" width="4.00" shape="205.86,635.06 225.86,635.11"/>
    </edge>
    <edge id=":-59556_0" function="internal">
        <lane id=":-59556_0_0" index="0" speed="10.65" length="1.94" width="4.00" shape="209.13,467.99 209.40,466.07"/>
        <lane id=":-59556_0_1" index="1" speed="9.29" length="1.91" width="4.00" shape="213.13,467.97 213.39,466.08"/>
        <lane id=":-59556_0_2" index="2" speed="7.69" length="1.88" width="4.00" shape="217.13,467.95 217.39,466.09"/>
        <lane id=":-59556_0_3" index="3" speed="5.67" length="1.85" width="4.00" shape="221.13,467.94 221.37,466.21 221.43,466.11"/>
    </edge>
    <edge id=":-59556_8" function="internal">
        <lane id=":-59556_8_0" index="0" speed="10.65" length="23.88" width="4.00" shape="209.40,466.07 210.10,460.97 213.09,455.97 218.09,452.97 225.10,451.99"/>
    </edge>
    <edge id=":-59556_9" function="internal">
        <lane id=":-59556_9_0" index="0" speed="9.29" length="17.43" width="4.00" shape="213.39,466.08 213.86,462.72 216.10,458.97 219.84,456.73 225.09,455.99"/>
    </edge>
    <edge id=":-59556_10" function="internal">
        <lane id=":-59556_10_0" index="0" speed="7.69" length="10.97" width="4.00" shape="217.39,466.09 217.62,464.46 219.10,461.97 221.59,460.48 225.08,459.99"/>
    </edge>
    <edge id=":-59556_11" function="internal">
        <lane id=":-59556_11_0" index="0" speed="5.67" length="4.52" width="4.00" shape="221.43,466.11 222.11,464.97 223.34,464.23 225.07,463.99"/>
    </edge>
    <edge id=":-59556_4" function="internal">
        <lane id=":-59556_4_0" index="0" speed="13.89" length="20.00" width="4.00" shape="205.10,451.94 225.10,451.99"/>
        <lane id=":-59556_4_1" index="1" speed="13.89" length="20.00" width="4.00" shape="205.09,455.94 225.09,455.99"/>
        <lane id=":-59556_4_2" index="2" speed="13.89" length="20.00" width="4.00" shape="205.08,459.94 225.08,459.99"/>
        <lane id=":-59556_4_3" index="3" speed="13.89" length="20.00" width="4.00" shape="205.07,463.94 225.07,463.99"/>
    </edge>
    <edge id=":-59557_0" function="internal">
        <lane id=":-59557_0_0" index="0" speed="10.65" length="1.94" width="4.00" shape="207.96,206.33 208.22,204.41"/>
        <lane id=":-59557_0_1" index="1" speed="9.29" length="1.91" width="4.00" shape="211.96,206.31 212.22,204.42"/>
        <lane id=":-59557_0_2" index="2" speed="7.70" length="1.88" width="4.00" shape="215.96,206.30 216.21,204.43"/>
        <lane id=":-59557_0_3" index="3" speed="5.67" length="1.85" width="4.00" shape="219.96,206.28 220.20,204.55 220.25,204.46"/>
    </edge>
    <edge id=":-59557_8" function="internal">
        <lane id=":-59557_8_0" index="0" speed="10.65" length="23.88" width="4.00" shape="208.22,204.41 208.93,199.32 211.91,194.31 216.91,191.32 223.93,190.33"/>
    </edge>
    <edge id=":-59557_9" function="internal">
        <lane id=":-59557_9_0" index="0" speed="9.29" length="17.43" width="4.00" shape="212.22,204.42 212.68,201.06 214.92,197.31 218.66,195.07 223.92,194.33"/>
    </edge>
    <edge id=":-59557_10" function="internal">
        <lane id=":-59557_10_0" index="0" speed="7.70" length="10.97" width="4.00" shape="216.21,204.43 216.44,202.80 217.93,200.31 220.41,198.82 223.91,198.33"/>
    </edge>
    <edge id=":-59557_11" function="internal">
        <lane id=":-59557_11_0" index="0" speed="5.67" length="4.52" width="4.00" shape="220.25,204.46 220.93,203.31 222.17,202.57 223.90,202.33"/>
    </edge>
    <edge id=":-59557_4" function="internal">
        <lane id=":-59557_4_0" index="0" speed="13.89" length="20.00" width="4.00" shape="203.93,190.28 223.93,190.33"/>
        <lane id=":-59557_4_1" index="1" speed="13.89" length="20.00" width="4.00" shape="203.92,194.28 223.92,194.33"/>
        <lane id=":-59557_4_2" index="2" speed="13.89" length="20.00" width="4.00" shape="203.91,198.28 223.91,198.33"/>
        <lane id=":-59557_4_3" index="3" speed="13.89" length="20.00" width="4.00" shape="203.90,202.28 223.90,202.33"/>
    </edge>
    <edge id=":-59558_0" function="internal">
        <lane id=":-59558_0_0" index="0" speed="10.65" length="1.94" width="4.00" shape="207.08,10.58 207.34,8.66"/>
        <lane id=":-59558_0_1" index="1" speed="9.29" length="1.91" width="4.00" shape="211.08,10.56 211.34,8.67"/>
        <lane id=":-59558_0_2" index="2" speed="7.70" length="1.88" width="4.00" shape="215.08,10.54 215.33,8.68"/>
        <lane id=":-59558_0_3" index="3" speed="5.67" length="1.85" width="4.00" shape="219.08,10.53 219.32,8.79 219.37,8.70"/>
    </edge>
    <edge id=":-59558_8" function="internal">
        <lane id=":-59558_8_0" index="0" speed="10.65" length="23.88" width="4.00" shape="207.34,8.66 208.05,3.56 211.03,-1.44 216.03,-4.44 223.05,-5.42"/>
    </edge>
    <edge id=":-59558_9" function="internal">
        <lane id=":-59558_9_0" index="0" speed="9.29" length="17.43" width="4.00" shape="211.34,8.67 211.80,5.31 214.04,1.56 217.78,-0.68 223.04,-1.42"/>
    </edge>
    <edge id=":-59558_10" function="internal">
        <lane id=":-59558_10_0" index="0" speed="7.70" length="10.97" width="4.00" shape="215.33,8.68 215.56,7.05 217.05,4.56 219.53,3.07 223.03,2.58"/>
    </edge>
    <edge id=":-59558_11" function="internal">
        <lane id=":-59558_11_0" index="0" speed="5.67" length="4.52" width="4.00" shape="219.37,8.70 220.05,7.56 221.29,6.82 223.02,6.58"/>
    </edge>
    <edge id=":-59558_4" function="internal">
        <lane id=":-59558_4_0" index="0" speed="13.89" length="20.00" width="4.00" shape="203.05,-5.47 223.05,-5.42"/>
        <lane id=":-59558_4_1" index="1" speed="13.89" length="20.00" width="4.00" shape="203.04,-1.47 223.04,-1.42"/>
        <lane id=":-59558_4_2" index="2" speed="13.89" length="20.00" width="4.00" shape="203.03,2.53 223.03,2.58"/>
        <lane id=":-59558_4_3" index="3" speed="13.89" length="20.00" width="4.00" shape="203.02,6.53 223.02,6.58"/>
    </edge>
    <edge id=":-59559_0" function="internal">
        <lane id=":-59559_0_0" index="0" speed="5.67" length="6.37" width="4.00" shape="434.30,623.66 436.03,623.42 437.26,622.68 438.00,621.44 438.24,619.71"/>
        <lane id=":-59559_0_1" index="1" speed="6.82" length="9.83" width="4.00" shape="434.30,623.66 437.78,623.42 440.26,622.68 441.75,621.44 442.24,619.69"/>
        <lane id=":-59559_0_2" index="2" speed="7.87" length="13.51" width="4.00" shape="434.30,623.66 439.53,623.42 443.26,622.68 445.50,621.43 446.24,619.68"/>
        <lane id=":-59559_0_3" index="3" speed="8.82" length="17.29" width="4.00" shape="434.30,623.66 441.28,623.42 446.26,622.68 449.25,621.42 450.24,619.66"/>
    </edge>
    <edge id=":-59559_4" function="internal">
        <lane id=":-59559_4_0" index="0" speed="13.89" length="20.00" width="4.00" shape="434.30,623.66 454.30,623.71"/>
        <lane id=":-59559_4_1" index="1" speed="13.89" length="20.00" width="4.00" shape="434.29,627.66 454.29,627.71"/>
        <lane id=":-59559_4_2" index="2" speed="13.89" length="20.00" width="4.00" shape="434.28,631.66 454.28,631.71"/>
        <lane id=":-59559_4_3" index="3" speed="13.89" length="20.00" width="4.00" shape="434.27,635.66 454.27,635.71"/>
    </edge>
    <edge id=":-59560_0" function="internal">
        <lane id=":-59560_0_0" index="0" speed="13.89" length="20.00" width="4.00" shape="437.56,468.59 437.47,448.59"/>
        <lane id=":-59560_0_1" index="1" speed="13.89" length="20.00" width="4.00" shape="441.56,468.57 441.47,448.57"/>
        <lane id=":-59560_0_2" index="2" speed="13.89" length="20.00" width="4.00" shape="445.56,468.55 445.47,448.55"/>
        <lane id=":-59560_0_3" index="3" speed="13.89" length="20.00" width="4.00" shape="449.56,468.53 449.47,448.53"/>
    </edge>
    <edge id=":-59560_4" function="internal">
        <lane id=":-59560_4_0" index="0" speed="6.82" length="1.90" width="4.00" shape="449.56,468.53 449.69,466.63"/>
        <lane id=":-59560_4_1" index="1" speed="5.67" length="1.85" width="4.00" shape="449.56,468.53 449.80,466.80 449.86,466.71"/>
    </edge>
    <edge id=":-59560_12" function="internal">
        <lane id=":-59560_12_0" index="0" speed="6.82" length="7.92" width="4.00" shape="449.69,466.63 449.80,465.05 450.53,462.57 451.77,461.08 453.51,460.59"/>
    </edge>
    <edge id=":-59560_13" function="internal">
        <lane id=":-59560_13_0" index="0" speed="5.67" length="4.52" width="4.00" shape="449.86,466.71 450.54,465.57 451.77,464.83 453.50,464.59"/>
    </edge>
    <edge id=":-59560_6" function="internal">
        <lane id=":-59560_6_0" index="0" speed="5.67" length="6.37" width="4.00" shape="433.53,452.53 435.26,452.29 436.50,451.55 437.23,450.32 437.47,448.59"/>
        <lane id=":-59560_6_1" index="1" speed="6.82" length="9.83" width="4.00" shape="433.53,452.53 437.01,452.29 439.50,451.55 440.98,450.31 441.47,448.57"/>
    </edge>
    <edge id=":-59560_8" function="internal">
        <lane id=":-59560_8_0" index="0" speed="13.89" length="20.00" width="4.00" shape="433.53,452.53 453.53,452.59"/>
        <lane id=":-59560_8_1" index="1" speed="13.89" length="20.00" width="4.00" shape="433.52,456.53 453.52,456.59"/>
        <lane id=":-59560_8_2" index="2" speed="13.89" length="20.00" width="4.00" shape="433.51,460.53 453.51,460.59"/>
        <lane id=":-59560_8_3" index="3" speed="13.89" length="20.00" width="4.00" shape="433.50,464.53 453.50,464.59"/>
    </edge>
    <edge id=":-59561_0" function="internal">
        <lane id=":-59561_0_0" index="0" speed="13.89" length="20.00" width="4.00" shape="436.39,206.93 436.30,186.93"/>
        <lane id=":-59561_0_1" index="1" speed="13.89" length="20.00" width="4.00" shape="440.39,206.91 440.30,186.91"/>
        <lane id=":-59561_0_2" index="2" speed="13.89" length="20.00" width="4.00" shape="444.39,206.89 444.30,186.89"/>
        <lane id=":-59561_0_3" index="3" speed="13.89" length="20.00" width="4.00" shape="448.39,206.87 448.30,186.87"/>
    </edge>
    <edge id=":-59561_4" function="internal">
        <lane id=":-59561_4_0" index="0" speed="6.82" length="1.90" width="4.00" shape="448.39,206.87 448.52,204.98"/>
        <lane id=":-59561_4_1" index="1" speed="5.67" length="1.85" width="4.00" shape="448.39,206.87 448.63,205.14 448.69,205.05"/>
    </edge>
    <edge id=":-59561_12" function="internal">
        <lane id=":-59561_12_0" index="0" speed="6.82" length="7.92" width="4.00" shape="448.52,204.98 448.63,203.39 449.36,200.91 450.60,199.42 452.34,198.93"/>
    </edge>
    <edge id=":-59561_13" function="internal">
        <lane id=":-59561_13_0" index="0" speed="5.67" length="4.52" width="4.00" shape="448.69,205.05 449.37,203.91 450.60,203.17 452.33,202.93"/>
    </edge>
    <edge id=":-59561_6" function="internal">
        <lane id=":-59561_6_0" index="0" speed="5.67" length="6.37" width="4.00" shape="432.36,190.88 434.09,190.63 435.33,189.89 436.06,188.66 436.30,186.93"/>
        <lane id=":-59561_6_1" index="1" speed="6.82" length="9.83" width="4.00" shape="432.36,190.88 435.84,190.64 438.33,189.89 439.81,188.65 440.30,186.91"/>
    </edge>
    <edge id=":-59561_8" function="internal">
        <lane id=":-59561_8_0" index="0" speed="13.89" length="20.00" width="4.00" shape="432.36,190.88 452.36,190.93"/>
        <lane id=":-59561_8_1" index="1" speed="13.89" length="20.00" width="4.00" shape="432.35,194.88 452.35,194.93"/>
        <lane id=":-59561_8_2" index="2" speed="13.89" length="20.00" width="4.00" shape="432.34,198.88 452.34,198.93"/>
        <lane id=":-59561_8_3" index="3" speed="13.89" length="20.00" width="4.00" shape="432.33,202.88 452.33,202.93"/>
    </edge>
    <edge id=":-59562_0" function="internal">
        <lane id=":-59562_0_0" index="0" speed="10.65" length="1.94" width="4.00" shape="435.52,11.18 435.78,9.26"/>
        <lane id=":-59562_0_1" index="1" speed="9.29" length="1.91" width="4.00" shape="439.52,11.16 439.78,9.27"/>
        <lane id=":-59562_0_2" index="2" speed="7.70" length="1.88" width="4.00" shape="443.52,11.14 443.77,9.28"/>
        <lane id=":-59562_0_3" index="3" speed="5.67" length="1.85" width="4.00" shape="447.52,11.12 447.76,9.39 447.81,9.30"/>
    </edge>
    <edge id=":-59562_8" function="internal">
        <lane id=":-59562_8_0" index="0" speed="10.65" length="23.88" width="4.00" shape="435.78,9.26 436.49,4.16 439.47,-0.85 444.47,-3.84 451.49,-4.82"/>
    </edge>
    <edge id=":-59562_9" function="internal">
        <lane id=":-59562_9_0" index="0" speed="9.29" length="17.43" width="4.00" shape="439.78,9.27 440.24,5.90 442.48,2.16 446.22,-0.09 451.48,-0.82"/>
    </edge>
    <edge id=":-59562_10" function="internal">
        <lane id=":-59562_10_0" index="0" speed="7.70" length="10.97" width="4.00" shape="443.77,9.28 444.00,7.65 445.49,5.16 447.97,3.67 451.47,3.18"/>
    </edge>
    <edge id=":-59562_11" function="internal">
        <lane id=":-59562_11_0" index="0" speed="5.67" length="4.52" width="4.00" shape="447.81,9.30 448.49,8.16 449.73,7.42 451.46,7.18"/>
    </edge>
    <edge id=":-59562_4" function="internal">
        <lane id=":-59562_4_0" index="0" speed="13.89" length="20.00" width="4.00" shape="431.49,-4.88 451.49,-4.82"/>
        <lane id=":-59562_4_1" index="1" speed="13.89" length="20.00" width="4.00" shape="431.48,-0.88 451.48,-0.82"/>
        <lane id=":-59562_4_2" index="2" speed="13.89" length="20.00" width="4.00" shape="431.47,3.12 451.47,3.18"/>
        <lane id=":-59562_4_3" index="3" speed="13.89" length="20.00" width="4.00" shape="431.46,7.12 451.46,7.18"/>
    </edge>
    <edge id=":-59564_0" function="internal">
        <lane id=":-59564_0_0" index="0" speed="13.89" length="20.00" width="4.00" shape="592.90,207.34 592.81,187.34"/>
        <lane id=":-59564_0_1" index="1" speed="13.89" length="20.00" width="4.00" shape="596.90,207.32 596.81,187.32"/>
        <lane id=":-59564_0_2" index="2" speed="13.89" length="20.00" width="4.00" shape="600.90,207.30 600.81,187.30"/>
        <lane id=":-59564_0_3" index="3" speed="13.89" length="20.00" width="4.00" shape="604.90,207.29 604.81,187.29"/>
    </edge>
    <edge id=":-59564_4" function="internal">
        <lane id=":-59564_4_0" index="0" speed="5.67" length="6.37" width="4.00" shape="588.87,191.29 590.60,191.04 591.84,190.30 592.57,189.07 592.81,187.34"/>
        <lane id=":-59564_4_1" index="1" speed="7.70" length="12.85" width="4.00" shape="588.86,195.29 592.35,194.80 594.84,193.31 596.33,190.81 596.81,187.32"/>
        <lane id=":-59564_4_2" index="2" speed="9.29" length="19.34" width="4.00" shape="588.85,199.29 594.10,198.55 597.85,196.31 600.08,192.56 600.81,187.30"/>
        <lane id=":-59564_4_3" index="3" speed="10.65" length="25.82" width="4.00" shape="588.84,203.29 595.85,202.30 600.85,199.31 603.84,194.30 604.81,187.29"/>
    </edge>
    <edge id=":-59565_0" function="internal">
        <lane id=":-59565_0_0" index="0" speed="13.89" length="20.00" width="4.00" shape="594.07,469.00 593.98,449.00"/>
        <lane id=":-59565_0_1" index="1" speed="13.89" length="20.00" width="4.00" shape="598.07,468.98 597.98,448.98"/>
        <lane id=":-59565_0_2" index="2" speed="13.89" length="20.00" width="4.00" shape="602.07,468.96 601.98,448.96"/>
        <lane id=":-59565_0_3" index="3" speed="13.89" length="20.00" width="4.00" shape="606.07,468.94 605.98,448.94"/>
    </edge>
    <edge id=":-59565_4" function="internal">
        <lane id=":-59565_4_0" index="0" speed="5.67" length="6.37" width="4.00" shape="590.04,452.94 591.77,452.70 593.00,451.96 593.74,450.73 593.98,449.00"/>
        <lane id=":-59565_4_1" index="1" speed="7.70" length="12.85" width="4.00" shape="590.03,456.94 593.52,456.45 596.01,454.96 597.50,452.47 597.98,448.98"/>
        <lane id=":-59565_4_2" index="2" speed="9.29" length="19.34" width="4.00" shape="590.02,460.94 595.27,460.21 599.02,457.96 601.25,454.22 601.98,448.96"/>
        <lane id=":-59565_4_3" index="3" speed="10.65" length="25.82" width="4.00" shape="590.01,464.94 597.02,463.96 602.02,460.97 605.01,455.96 605.98,448.94"/>
    </edge>
    <edge id=":-59566_0" function="internal">
        <lane id=":-59566_0_0" index="0" speed="5.67" length="6.37" width="4.00" shape="590.80,624.07 592.53,623.83 593.77,623.09 594.50,621.85 594.74,620.12"/>
        <lane id=":-59566_0_1" index="1" speed="7.70" length="12.85" width="4.00" shape="590.79,628.07 594.29,627.58 596.77,626.09 598.26,623.60 598.74,620.10"/>
        <lane id=":-59566_0_2" index="2" speed="9.29" length="19.34" width="4.00" shape="590.78,632.07 596.04,631.33 599.78,629.09 602.02,625.34 602.74,620.09"/>
        <lane id=":-59566_0_3" index="3" speed="10.65" length="25.82" width="4.00" shape="590.77,636.07 597.79,635.08 602.79,632.09 605.77,627.08 606.74,620.07"/>
    </edge>

    <edge id="-7675_1" from="-59559" to="-59566" priority="-1" shape="454.26,637.71 590.77,638.07">
        <lane id="-7675_1_0" index="0" speed="13.89" length="136.50" width="4.00" shape="454.30,623.71 590.80,624.07"/>
        <lane id="-7675_1_1" index="1" speed="13.89" length="136.50" width="4.00" shape="454.29,627.71 590.79,628.07"/>
        <lane id="-7675_1_2" index="2" speed="13.89" length="136.50" width="4.00" shape="454.28,631.71 590.78,632.07"/>
        <lane id="-7675_1_3" index="3" speed="13.89" length="136.50" width="4.00" shape="454.27,635.71 590.77,636.07"/>
    </edge>
    <edge id="-7676_1" from="-59526" to="-59514" priority="-1" shape="8.84,185.72 8.05,9.96">
        <lane id="-7676_1_0" index="0" speed="13.89" length="175.75" width="4.00" shape="-5.16,185.78 -5.95,10.03"/>
        <lane id="-7676_1_1" index="1" speed="13.89" length="175.75" width="4.00" shape="-1.16,185.76 -1.95,10.01"/>
        <lane id="-7676_1_2" index="2" speed="13.89" length="175.75" width="4.00" shape="2.84,185.74 2.05,9.99"/>
        <lane id="-7676_1_3" index="3" speed="13.89" length="175.75" width="4.00" shape="6.84,185.73 6.05,9.97"/>
    </edge>
    <edge id="-7680_2" from="-59514" to="-59558" priority="-1" shape="9.98,8.03 203.01,8.53">
        <lane id="-7680_2_0" index="0" speed="13.89" length="193.03" width="4.00" shape="10.02,-5.97 203.05,-5.47"/>
        <lane id="-7680_2_1" index="1" speed="13.89" length="193.03" width="4.00" shape="10.01,-1.97 203.04,-1.47"/>
        <lane id="-7680_2_2" index="2" speed="13.89" length="193.03" width="4.00" shape="9.99,2.03 203.03,2.53"/>
        <lane id="-7680_2_3" index="3" speed="13.89" length="193.03" width="4.00" shape="9.98,6.03 203.02,6.53"/>
    </edge>
    <edge id="-7687_2" from="-59528" to="-59556" priority="-1" shape="12.04,465.44 205.07,465.94">
        <lane id="-7687_2_0" index="0" speed="13.89" length="193.02" width="4.00" shape="12.08,451.44 205.10,451.94"/>
        <lane id="-7687_2_1" index="1" speed="13.89" length="193.02" width="4.00" shape="12.07,455.44 205.09,455.94"/>
        <lane id="-7687_2_2" index="2" speed="13.89" length="193.02" width="4.00" shape="12.06,459.44 205.08,459.94"/>
        <lane id="-7687_2_3" index="3" speed="13.89" length="193.02" width="4.00" shape="12.05,463.44 205.07,463.94"/>
    </edge>
    <edge id="-7691_2" from="-59526" to="-59557" priority="-1" shape="10.86,203.78 203.89,204.28">
        <lane id="-7691_2_0" index="0" speed="13.89" length="193.03" width="4.00" shape="10.90,189.78 203.93,190.28"/>
        <lane id="-7691_2_1" index="1" speed="13.89" length="193.03" width="4.00" shape="10.89,193.78 203.92,194.28"/>
        <lane id="-7691_2_2" index="2" speed="13.89" length="193.03" width="4.00" shape="10.88,197.78 203.91,198.28"/>
        <lane id="-7691_2_3" index="3" speed="13.89" length="193.03" width="4.00" shape="10.87,201.78 203.90,202.28"/>
    </edge>
    <edge id="-7698_1" from="-59538" to="-59558" priority="-1" shape="221.91,195.84 221.08,10.52">
        <lane id="-7698_1_0" index="0" speed="13.89" length="185.33" width="4.00" shape="207.91,195.90 207.08,10.58"/>
        <lane id="-7698_1_1" index="1" speed="13.89" length="185.33" width="4.00" shape="211.91,195.89 211.08,10.56"/>
        <lane id="-7698_1_2" index="2" speed="13.89" length="185.33" width="4.00" shape="215.91,195.87 215.08,10.54"/>
        <lane id="-7698_1_3" index="3" speed="13.89" length="185.33" width="4.00" shape="219.91,195.85 219.08,10.53"/>
    </edge>
    <edge id="-7700_1" from="-59561" to="-59562" priority="-1" shape="450.30,186.87 449.52,11.11">
        <lane id="-7700_1_0" index="0" speed="13.89" length="175.75" width="4.00" shape="436.30,186.93 435.52,11.18"/>
        <lane id="-7700_1_1" index="1" speed="13.89" length="175.75" width="4.00" shape="440.30,186.91 439.52,11.16"/>
        <lane id="-7700_1_2" index="2" speed="13.89" length="175.75" width="4.00" shape="444.30,186.89 443.52,11.14"/>
        <lane id="-7700_1_3" index="3" speed="13.89" length="175.75" width="4.00" shape="448.30,186.87 447.52,11.12"/>
    </edge>
    <edge id="-7701_1" from="-59564" to="-59563" priority="-1" shape="606.81,187.28 606.03,11.52">
        <lane id="-7701_1_0" index="0" speed="13.89" length="175.75" width="4.00" shape="592.81,187.34 592.03,11.59"/>
        <lane id="-7701_1_1" index="1" speed="13.89" length="175.75" width="4.00" shape="596.81,187.32 596.03,11.57"/>
        <lane id="-7701_1_2" index="2" speed="13.89" length="175.75" width="4.00" shape="600.81,187.30 600.03,11.55"/>
        <lane id="-7701_1_3" index="3" speed="13.89" length="175.75" width="4.00" shape="604.81,187.29 604.03,11.53"/>
    </edge>
    <edge id="-7703_2" from="-59502" to="-59555" priority="-1" shape="12.81,636.56 205.85,637.06">
        <lane id="-7703_2_0" index="0" speed="13.89" length="193.04" width="4.00" shape="12.85,622.56 205.89,623.06"/>
        <lane id="-7703_2_1" index="1" speed="13.89" length="193.04" width="4.00" shape="12.84,626.56 205.88,627.06"/>
        <lane id="-7703_2_2" index="2" speed="13.89" length="193.04" width="4.00" shape="12.83,630.56 205.87,631.06"/>
        <lane id="-7703_2_3" index="3" speed="13.89" length="193.04" width="4.00" shape="12.82,634.56 205.86,635.06"/>
    </edge>
    <edge id="-7706" from="-59555" to="-59559" priority="-1" shape="225.85,637.11 434.26,637.66">
        <lane id="-7706_0" index="0" speed="13.89" length="208.41" width="4.00" shape="225.89,623.11 434.30,623.66"/>
        <lane id="-7706_1" index="1" speed="13.89" length="208.41" width="4.00" shape="225.88,627.11 434.29,627.66"/>
        <lane id="-7706_2" index="2" speed="13.89" length="208.41" width="4.00" shape="225.87,631.11 434.28,631.66"/>
        <lane id="-7706_3" index="3" speed="13.89" length="208.41" width="4.00" shape="225.86,635.11 434.27,635.66"/>
    </edge>
    <edge id="-7709_2" from="-59555" to="-59556" priority="-1" shape="223.83,619.05 223.13,467.93">
        <lane id="-7709_2_0" index="0" speed="13.89" length="151.13" width="4.00" shape="209.83,619.12 209.13,467.99"/>
        <lane id="-7709_2_1" index="1" speed="13.89" length="151.13" width="4.00" shape="213.83,619.10 213.13,467.97"/>
        <lane id="-7709_2_2" index="2" speed="13.89" length="151.13" width="4.00" shape="217.83,619.08 217.13,467.95"/>
        <lane id="-7709_2_3" index="3" speed="13.89" length="151.13" width="4.00" shape="221.83,619.06 221.13,467.94"/>
    </edge>
    <edge id="-7712_1" from="-59537" to="-59557" priority="-1" shape="223.08,457.50 221.96,206.27">
        <lane id="-7712_1_0" index="0" speed="13.89" length="251.23" width="4.00" shape="209.08,457.56 207.96,206.33"/>
        <lane id="-7712_1_1" index="1" speed="13.89" length="251.23" width="4.00" shape="213.08,457.54 211.96,206.31"/>
        <lane id="-7712_1_2" index="2" speed="13.89" length="251.23" width="4.00" shape="217.08,457.53 215.96,206.30"/>
        <lane id="-7712_1_3" index="3" speed="13.89" length="251.23" width="4.00" shape="221.08,457.51 219.96,206.28"/>
    </edge>
    <edge id="-7715_2" from="-59559" to="-59560" priority="-1" shape="452.24,619.65 451.56,468.52">
        <lane id="-7715_2_0" index="0" speed="13.89" length="151.13" width="4.00" shape="438.24,619.71 437.56,468.59"/>
        <lane id="-7715_2_1" index="1" speed="13.89" length="151.13" width="4.00" shape="442.24,619.69 441.56,468.57"/>
        <lane id="-7715_2_2" index="2" speed="13.89" length="151.13" width="4.00" shape="446.24,619.68 445.56,468.55"/>
        <lane id="-7715_2_3" index="3" speed="13.89" length="151.13" width="4.00" shape="450.24,619.66 449.56,468.53"/>
    </edge>
    <edge id="-7718" from="-59560" to="-59561" priority="-1" shape="451.47,448.52 450.39,206.87">
        <lane id="-7718_0" index="0" speed="13.89" length="241.66" width="4.00" shape="437.47,448.59 436.39,206.93"/>
        <lane id="-7718_1" index="1" speed="13.89" length="241.66" width="4.00" shape="441.47,448.57 440.39,206.91"/>
        <lane id="-7718_2" index="2" speed="13.89" length="241.66" width="4.00" shape="445.47,448.55 444.39,206.89"/>
        <lane id="-7718_3" index="3" speed="13.89" length="241.66" width="4.00" shape="449.47,448.53 448.39,206.87"/>
    </edge>
    <edge id="-7721_2" from="-59502" to="-59528" priority="-1" shape="10.79,618.50 10.11,467.37">
        <lane id="-7721_2_0" index="0" speed="13.89" length="151.13" width="4.00" shape="-3.21,618.56 -3.89,467.44"/>
        <lane id="-7721_2_1" index="1" speed="13.89" length="151.13" width="4.00" shape="0.79,618.54 0.11,467.42"/>
        <lane id="-7721_2_2" index="2" speed="13.89" length="151.13" width="4.00" shape="4.79,618.53 4.11,467.40"/>
        <lane id="-7721_2_3" index="3" speed="13.89" length="151.13" width="4.00" shape="8.79,618.51 8.11,467.38"/>