<?xml version='1.0' encoding='UTF-8'?>
<nodes>
  <node id="-59502" x="-298.782621" y="310.030211" shape="-290.827807,299.994229 -288.761904,302.056176 -288.803405,318.056122 -302.196249,318.021412 -306.749686,313.837528 -306.782316,310.100053 -306.782540,310.066295 -306.827644,300.066396 -290.827807,299.994229 -290.827807,299.994229"/>
  <node id="-59514" x="-301.617669" y="-318.505185" shape="-304.306842,-326.512164 -300.913663,-326.503392 -291.596953,-326.479227 -291.638452,-310.479281 -293.572645,-308.541371 -309.572482,-308.469202 -309.631258,-321.499755 -304.306842,-326.512164 -304.306842,-326.512164"/>
  <node id="-59526" x="-300.734705" y="-122.752836" shape="-292.779892,-132.788819 -290.713989,-130.726872 -290.755488,-114.726926 -292.689681,-112.789022 -308.689518,-112.716854 -308.779729,-132.716650 -292.779892,-132.788819 -292.779892,-132.788819"/>
  <node id="-59528" x="-299.554479" y="138.905439" shape="-291.599666,128.869457 -289.533762,130.931404 -289.575263,146.931350 -291.509456,148.869254 -307.509293,148.941421 -307.599503,128.941625 -291.599666,128.869457 -291.599666,128.869457"/>
  <node id="-59537" x="-86.532733" y="139.030103"/>
  <node id="-59538" x="-87.708591" y="-122.628183"/>
  <node id="-59555" x="-85.746334" y="310.582794" shape="-77.792258,300.546227 -75.725479,302.608933 -75.767257,318.608878 -95.767051,318.556829 -95.725550,302.556883 -93.792090,300.619571 -77.792258,300.546227 -77.792258,300.546227"/>
  <node id="-59556" x="-86.530772" y="139.457977" shape="-96.509988,131.432066 -86.509883,131.458004 -76.509917,131.484115 -76.551695,147.484061 -78.485016,149.421200 -94.484848,149.494544 -96.551489,147.432012 -96.509988,131.432066 -96.509988,131.432066"/>
  <node id="-59557" x="-87.706669" y="-122.2003" shape="-97.685886,-130.226210 -87.685781,-130.200273 -77.685815,-130.174163 -77.727591,-114.174217 -79.661812,-112.236352 -95.661650,-112.164450 -97.727385,-114.226264 -97.685886,-130.226210 -97.685886,-130.226210"/>
  <node id="-59558" x="-88.586366" y="-317.952653" shape="-98.565583,-325.978563 -88.565478,-325.952626 -78.565512,-325.926516 -78.607288,-309.926571 -80.541508,-307.988705 -96.541346,-307.916803 -98.607082,-309.978617 -98.565583,-325.978563 -98.565583,-325.978563"/>
  <node id="-59559" x="142.667054" y="311.179212" shape="150.622015,301.143507 152.688029,303.205502 152.646010,319.205446 132.646199,319.153073 132.687977,303.153128 134.622175,301.215120 150.622015,301.143507 150.622015,301.143507"/>
  <node id="-59560" x="141.900915" y="140.054433" shape="149.856076,130.018726 151.921890,132.080722 151.879871,148.080667 149.945594,150.018526 133.945754,150.090140 131.880060,148.028295 131.921838,132.028349 133.856236,130.090341 149.856076,130.018726 149.856076,130.018726"/>
  <node id="-59561" x="140.729741" y="-121.603849" shape="148.684900,-131.639557 150.750715,-129.577560 150.708698,-113.577616 148.774420,-111.639757 132.774580,-111.568142 130.708887,-113.629986 130.750663,-129.629932 132.685060,-131.567941 148.684900,-131.639557 148.684900,-131.639557"/>
  <node id="-59562" x="139.853546" y="-317.356205" shape="129.874468,-325.382287 139.874554,-325.356177 149.874520,-325.329917 149.832503,-309.329972 147.898226,-307.392113 131.898386,-307.320497 129.832692,-309.382342 129.874468,-325.382287 129.874468,-325.382287"/>
  <node id="-59563" x="296.365071" y="-316.945199" shape="286.386114,-324.971432 296.386129,-324.945171 302.245226,-324.929749 304.358413,-318.454561 304.371942,-315.423905 304.409629,-306.981008 288.409788,-306.909589 286.344097,-308.971487 286.386114,-324.971432 286.386114,-324.971432"/>
  <node id="-59564" x="297.238865" y="-121.192841" shape="305.194148,-131.228451 305.245735,-119.671570 305.283422,-111.228650 289.283581,-111.157231 287.217891,-113.219130 287.259908,-129.219074 289.194307,-131.157032 305.194148,-131.228451 305.194148,-131.228451"/>
  <node id="-59565" x="298.40683" y="140.465444" shape="306.362114,130.429834 306.413700,141.986684 306.451386,150.429636 290.451546,150.501053 288.385855,148.439155 288.427874,132.439210 290.362273,130.501253 306.362114,130.429834 306.362114,130.429834"/>
  <node id="-59566" x="299.170671" y="311.590225" shape="307.125955,301.554616 307.209774,316.815162 304.325196,319.603823 289.149696,319.563935 289.191715,303.563991 291.126115,301.626033 307.125955,301.554616 307.125955,301.554616"/>
</nodes>
