<?xml version='1.0' encoding='UTF-8'?>
<edges>
  <edge id="-7706" from="-59555" to="-59559" numLanes="4" width="4.0" shape="-75.767257,318.608878 132.646200,319.153074 "/>
  <edge id="-7718" from="-59560" to="-59561" numLanes="4" width="4.0" shape="149.856076,130.018726 148.774420,-111.639757 "/>
  <edge id="-7724" from="-59528" to="-59526" numLanes="4" width="4.0" shape="-291.599666,128.869456 -292.689681,-112.789022 "/>
  <edge id="-7730" from="-59565" to="-59564" numLanes="4" width="4.0" shape="306.362114,130.429835 305.283421,-111.228649 "/>
  <edge id="-7739" from="-59558" to="-59562" numLanes="4" width="4.0" shape="-78.607288,-309.926570 129.832693,-309.382342 "/>
  <edge id="-7756" from="-59556" to="-59560" numLanes="4" width="4.0" shape="-76.551695,147.484061 131.880060,148.028295 "/>
  <edge id="-7776" from="-59557" to="-59561" numLanes="4" width="4.0" shape="-77.727591,-114.174217 130.708886,-113.629987 "/>
  <edge id="-7715_2" from="-59559" to="-59560" numLanes="4" width="4.0" shape="150.622016,301.143507 149.945594,150.018526 "/>
  <edge id="-7675_1" from="-59559" to="-59566" numLanes="4" width="4.0" shape="152.646010,319.205446 289.149695,319.563934 "/>
  <edge id="-7727_2" from="-59566" to="-59565" numLanes="4" width="4.0" shape="307.125955,301.554615 306.451387,150.429635 "/>
  <edge id="-7691_2" from="-59526" to="-59557" numLanes="4" width="4.0" shape="-290.755488,-114.726926 -97.727385,-114.226264 "/>
  <edge id="-7676_1" from="-59526" to="-59514" numLanes="4" width="4.0" shape="-292.779891,-132.788819 -293.572644,-308.541372 "/>
  <edge id="-7680_2" from="-59514" to="-59558" numLanes="4" width="4.0" shape="-291.638453,-310.479282 -98.607083,-309.978617 "/>
  <edge id="-7687_2" from="-59528" to="-59556" numLanes="4" width="4.0" shape="-289.575263,146.931349 -96.551488,147.432012 "/>
  <edge id="-7698_1" from="-59538" to="-59558" numLanes="4" width="4.0" shape="-79.708672,-122.664134 -80.541508,-307.988704 "/>
  <edge id="-7700_1" from="-59561" to="-59562" numLanes="4" width="4.0" shape="148.684900,-131.639557 147.898226,-307.392113 "/>
  <edge id="-7774_1" from="-59561" to="-59564" numLanes="4" width="4.0" shape="150.708697,-113.577616 287.217890,-113.219129 "/>
  <edge id="-7701_1" from="-59564" to="-59563" numLanes="4" width="4.0" shape="305.194147,-131.228451 304.409628,-306.981009 "/>
  <edge id="-7734_1" from="-59562" to="-59563" numLanes="4" width="4.0" shape="149.832504,-309.329973 286.344097,-308.971487 "/>
  <edge id="-7703_2" from="-59502" to="-59555" numLanes="4" width="4.0" shape="-288.803405,318.056123 -95.767051,318.556829 "/>
  <edge id="-7721_2" from="-59502" to="-59528" numLanes="4" width="4.0" shape="-290.827806,299.994229 -291.509455,148.869253 "/>
  <edge id="-7712_1" from="-59537" to="-59557" numLanes="4" width="4.0" shape="-78.532814,138.994152 -79.661811,-112.236351 "/>
  <edge id="-7746_1" from="-59560" to="-59565" numLanes="4" width="4.0" shape="151.879872,148.080667 288.385856,148.439155 "/>
  <edge id="-7709_2" from="-59555" to="-59556" numLanes="4" width="4.0" shape="-77.792258,300.546227 -78.485016,149.421200 "/>
</edges>
