<?xml version='1.0' encoding='UTF-8'?>
<edges>
  <edge id="-4596" from="42447020" to="42447009" numLanes="3" width="3.5" shape="492.105534,-72.866432 458.617607,-135.046854 "/>
  <edge id="--4596" to="42447020" from="42447009" numLanes="1" width="3.5" shape="458.617607,-135.046854 492.105534,-72.866432 "/>
  <edge id="-7740" from="42440015" to="Custom78" numLanes="3" width="3.5" shape="-679.639088,-2.379099 -681.014853,-4.801886 "/>
  <edge id="--7740" to="42440015" from="Custom78" numLanes="2" width="3.5" shape="-681.014853,-4.801886 -679.639088,-2.379099 "/>
  <edge id="-7760" from="42436700" to="Custom79" numLanes="4" width="3.5" shape="-186.837636,-356.272108 -187.614049,-357.821178 "/>
  <edge id="-7765" from="42445936" to="Custom80" numLanes="4" width="3.5" shape="-13.127634,-360.863732 -13.710369,-362.026112 "/>
  <edge id="-9706" from="42429970" to="Custom81" numLanes="4" width="3.5" shape="188.653688,367.876238 190.435062,371.252828 "/>
  <edge id="-9711" from="42447020" to="Custom82" numLanes="3" width="3.5" shape="489.608100,-62.534658 491.253133,-59.290514 "/>
  <edge id="--9711" to="42447020" from="Custom82" numLanes="1" width="3.5" shape="491.253133,-59.290514 489.608100,-62.534658 "/>
  <edge id="5669664" from="42427764" to="42427762" numLanes="3" width="4.0" shape="-43.232601,44.801045 -4.761561,23.895927 -0.994774,21.878302 "/>
  <edge id="5670139" from="42432818" to="9960054857" numLanes="2" width="3.5" shape="-31.020326,-66.237618 -26.562566,-68.637027 33.786479,-101.115703 "/>
  <edge id="-5670139" to="42432818" from="9960054857" numLanes="2" width="3.5" shape="33.786479,-101.115703 -26.562566,-68.637027 -31.020326,-66.237618 "/>
  <edge id="5670253" from="42430394" to="4347534767" numLanes="2" width="3.5" shape="-223.802650,230.817310 -218.954112,228.379465 -26.785507,125.095100 -21.536096,121.581564 -18.089248,119.046114 "/>
  <edge id="-5670253" to="42430394" from="4347534767" numLanes="2" width="3.5" shape="-18.089248,119.046114 -21.536096,121.581564 -26.785507,125.095100 -218.954112,228.379465 -223.802650,230.817310 "/>
  <edge id="5670873" from="9433097821" to="4347534767" numLanes="2" width="3.5" shape="16.871874,157.631044 -1.659941,125.428551 -1.694967,125.369053 -4.609686,120.527668 -4.629530,120.495109 -5.630157,118.873305 "/>
  <edge id="5670874" from="4347534767" to="5706568771" numLanes="3" width="3.5" shape="-6.251161,116.172209 -3.709109,114.103980 -0.287150,111.586834 3.738790,108.868022 34.784991,92.143465 34.878103,92.092082 36.542094,91.151716 "/>
  <edge id="5671129" from="42431544" to="42443612" numLanes="2" width="4.0" shape="-70.204038,-138.895102 -65.834796,-141.230275 51.029037,-203.734872 54.492251,-205.585231 "/>
  <edge id="5671574" from="5706568771" to="42445950" numLanes="3" width="3.5" shape="50.406608,83.639057 54.160520,81.690166 54.251171,81.641973 107.450430,52.688442 107.459718,52.683374 171.162033,17.846985 171.383771,17.718599 174.007254,16.112869 "/>
  <edge id="5671709" from="42436700" to="4207938835" numLanes="2" width="3.5" shape="-199.129519,-349.600758 -202.057350,-348.156080 -202.189656,-348.087253 -279.691317,-305.648109 -347.074284,-268.729843 -352.130082,-265.957314 -382.888888,-249.103668 -395.830343,-242.156182 -395.881293,-242.128283 -433.488920,-221.127664 "/>
  <edge id="5672290" from="4347534783" to="4347534768" numLanes="2" width="3.5" shape="72.153515,155.397168 68.548690,157.666276 51.420232,168.192537 48.425066,169.621429 44.759310,171.010598 42.555348,171.383831 39.825140,171.593147 "/>
  <edge id="5672951" from="42445947" to="10125156112" numLanes="3" width="4.0" shape="149.847062,-59.155332 152.382815,-60.561181 231.277373,-103.433459 "/>
  <edge id="5672954" from="42450426" to="42445936" numLanes="2" width="5.0" shape="-144.828815,-276.922032 -141.289306,-278.815904 -20.059574,-343.755082 "/>
  <edge id="46240204" from="42432834" to="42456598" numLanes="3" width="3.5" shape="242.213325,-205.812206 245.013144,-200.686987 276.416540,-143.175468 276.653703,-142.742019 "/>
  <edge id="46521993" from="42430371" to="42450426" numLanes="2" width="4.5" shape="-419.280770,-130.463445 -414.889339,-132.822594 -390.939035,-145.686092 -161.563593,-268.175769 -161.455213,-268.235576 -157.346163,-270.577340 "/>
  <edge id="46583189" from="4347534767" to="42427764" numLanes="1" width="4.0" shape="-14.686685,108.092737 -16.474724,104.882811 -44.930954,52.082025 -47.180703,47.904218 -47.223937,47.759927 "/>
  <edge id="198924587" from="42445950" to="8918680640" numLanes="4" width="3.5" shape="174.432178,17.308787 175.093478,18.581971 180.340748,28.947335 180.399556,29.060916 195.421855,57.436863 "/>
  <edge id="198924778" from="4347534783" to="8904527314" numLanes="4" width="3.5" shape="84.197289,147.744070 81.332781,142.502162 75.695934,132.030201 67.911539,117.317160 "/>
  <edge id="226041032" from="42440015" to="42430371" numLanes="2" width="5.0" shape="-667.660940,4.793652 -614.891788,-23.959672 -577.472028,-43.541222 -571.397478,-46.698036 -571.214352,-46.798110 -564.678689,-50.548922 -541.363320,-63.575188 -524.938436,-72.754893 -517.657195,-76.824991 -435.879047,-120.840632 -435.838555,-120.862668 -431.325265,-123.345803 "/>
  <edge id="388696206" from="42432825" to="596775935" numLanes="2" width="3.5" shape="108.306104,-141.338218 109.038076,-141.734967 210.119144,-196.494711 219.099148,-201.363224 222.237531,-203.062153 "/>
  <edge id="-388696206" to="42432825" from="596775935" numLanes="2" width="3.5" shape="222.237531,-203.062153 219.099148,-201.363224 210.119144,-196.494711 109.038076,-141.734967 108.306104,-141.338218 "/>
  <edge id="420899371" from="4207892896" to="4207892895" numLanes="2" width="3.5" shape="-304.830711,274.604491 -278.429141,260.335066 "/>
  <edge id="-420899371" to="4207892896" from="4207892895" numLanes="2" width="3.5" shape="-278.429141,260.335066 -304.830711,274.604491 "/>
  <edge id="420899372" from="4207892895" to="42430394" numLanes="2" width="3.5" shape="-278.429141,260.335065 -272.669767,257.226985 -247.295923,243.511897 -241.308689,240.435694 -236.124044,237.452704 "/>
  <edge id="-420899372" to="4207892895" from="42430394" numLanes="2" width="3.5" shape="-236.124044,237.452704 -241.308689,240.435694 -247.295923,243.511897 -272.669767,257.226985 -278.429141,260.335065 "/>
  <edge id="420905128" from="4207938835" to="42430367" numLanes="2" width="3.5" shape="-433.344098,-221.204146 -455.148947,-210.333458 -455.241868,-210.285385 -460.660189,-207.378766 "/>
  <edge id="420906750" from="3977886253" to="42445941" numLanes="4" width="3.5" shape="11.398671,-285.196035 11.952425,-284.175476 "/>
  <edge id="420906752" from="42445941" to="4960527241" numLanes="4" width="3.5" shape="18.227266,-271.998772 18.509601,-271.420957 18.661523,-271.127780 46.425072,-220.509553 "/>
  <edge id="421850829" from="42443612" to="42432825" numLanes="4" width="3.5" shape="55.944404,-202.944891 56.351811,-202.185796 87.951903,-143.306806 88.615990,-142.070392 "/>
  <edge id="421850830" from="4960527241" to="42443612" numLanes="4" width="3.5" shape="46.413772,-220.530237 49.173938,-215.457495 49.304982,-215.217190 "/>
  <edge id="422298615" from="42427762" to="42432818" numLanes="4" width="3.5" shape="6.042567,3.321222 5.619613,2.541127 2.205093,-3.879996 -24.730263,-54.532771 -24.743925,-54.558335 -27.702408,-60.066711 "/>
  <edge id="458180196" from="42445936" to="3977886253" numLanes="4" width="3.5" shape="-19.120329,-341.995250 -8.137505,-321.455584 -8.121264,-321.425389 -5.422548,-316.437262 11.387930,-285.215907 "/>
  <edge id="458180197" from="42450426" to="42436700" numLanes="4" width="3.5" shape="-150.467026,-287.509700 -181.309068,-345.241710 -183.252993,-349.120159 "/>
  <edge id="458180198" from="42445953" to="8254176965" numLanes="2" width="3.5" shape="208.356333,80.557189 204.998897,82.357953 190.742796,90.004258 119.863458,128.021132 "/>
  <edge id="496986969" from="42430384" to="42440022" numLanes="2" width="3.5" shape="-319.645620,88.704708 -322.739584,90.375630 -347.399902,103.677412 -456.030358,162.309106 -540.397520,207.746273 -548.372947,212.086847 "/>
  <edge id="-496986969" to="42430384" from="42440022" numLanes="2" width="3.5" shape="-548.372947,212.086847 -540.397520,207.746273 -456.030358,162.309106 -347.399902,103.677412 -322.739584,90.375630 -319.645620,88.704708 "/>
  <edge id="497165754" from="596775935" to="42432834" numLanes="3" width="3.5" shape="236.216257,-206.625231 238.946405,-208.092433 "/>
  <edge id="-497165754" to="596775935" from="42432834" numLanes="1" width="3.5" shape="238.946405,-208.092433 236.216257,-206.625231 "/>
  <edge id="497165756" from="Custom83" to="42443613" numLanes="3" width="3.5" shape="160.993373,-355.903993 164.083601,-350.183409 194.853430,-293.223270 194.859026,-293.212939 195.104580,-292.760800 "/>
  <edge id="497165757" from="42432834" to="42432847" numLanes="2" width="3.5" shape="249.620052,-217.805621 253.573575,-219.932641 309.600815,-250.072842 341.968731,-267.500848 364.549772,-279.647978 365.324073,-280.064093 "/>
  <edge id="-497165757" to="42432834" from="42432847" numLanes="2" width="3.5" shape="365.324073,-280.064093 364.549772,-279.647978 341.968731,-267.500848 309.600815,-250.072842 253.573575,-219.932641 249.620052,-217.805621 "/>
  <edge id="497258109" from="42430384" to="42432818" numLanes="2" width="3.5" shape="-304.680429,80.639801 -299.379077,77.791525 -221.873624,36.129446 -220.633310,35.455579 -47.961300,-57.141048 -45.994330,-58.195767 "/>
  <edge id="-497258109" to="42430384" from="42432818" numLanes="2" width="3.5" shape="-45.994330,-58.195767 -47.961300,-57.141048 -220.633310,35.455579 -221.873624,36.129446 -299.379077,77.791525 -304.680429,80.639801 "/>
  <edge id="499172074" from="42430375" to="42440020" numLanes="1" width="9.0" shape="-397.246748,-59.964564 -402.373785,-57.194686 -483.668000,-13.274892 -490.649889,-9.502823 -491.175708,-9.218741 -499.603063,-4.665724 -533.833446,13.827924 -540.594313,17.480642 -621.022831,60.934643 -633.612903,67.741656 "/>
  <edge id="569345474" from="42447009" to="5475605297" numLanes="4" width="3.5" shape="455.491779,-148.892441 455.319976,-149.249708 455.163060,-149.556452 437.282386,-182.485145 "/>
  <edge id="569345486" from="5475605297" to="42447007" numLanes="4" width="3.5" shape="437.274305,-182.499982 424.440538,-205.998969 424.438625,-205.997925 "/>
  <edge id="569345502" from="42432847" to="42443614" numLanes="4" width="3.5" shape="375.526874,-296.924558 374.604044,-298.628914 343.054363,-357.631147 "/>
  <edge id="573228989" from="42443613" to="42432834" numLanes="3" width="3.5" shape="200.351677,-283.095586 201.764768,-280.490884 232.922250,-222.917777 235.501654,-218.153454 "/>
  <edge id="576438593" from="42430394" to="Custom84" numLanes="1" width="4.0" shape="-228.640260,241.296698 -225.610002,247.385604 -227.000361,261.225597 -228.700040,265.324482 -230.932568,268.897487 -231.019565,269.051478 -232.511671,271.988773 -235.409565,275.678419 -239.598864,280.105542 -244.534568,284.229133 -251.425046,289.312761 -273.898441,305.519946 -274.005714,305.602981 -279.230693,309.938542 -279.337140,310.033477 -282.726132,313.280226 -282.879979,313.445238 -285.677326,316.807316 -288.585676,320.279129 -288.682779,320.404872 -288.769595,320.537925 -290.982161,324.242487 -290.984945,324.247162 -293.576633,328.613440 -293.646107,328.740793 -295.487052,332.427486 -295.540137,332.542813 -297.093992,336.221750 -297.157161,336.392638 -298.672930,341.148941 -298.718755,341.317995 -299.715932,345.758379 -299.740748,345.889078 -300.461606,350.521422 -300.482963,350.730428 -300.704053,355.213168 -300.704766,355.394506 -300.513723,360.004176 -300.497457,360.188938 -299.790388,365.426353 -299.757943,365.605048 -298.753951,369.991050 -298.703255,370.172678 -296.860555,375.745300 -296.821472,375.853036 -295.083212,380.247601 -295.002372,380.425921 -292.592288,385.116979 -292.499200,385.279056 -289.514947,389.954606 -289.419957,390.090639 -285.562362,395.153853 -285.459042,395.278638 -281.042607,400.192939 -280.917683,400.320064 -280.781939,400.435562 -274.165034,405.575372 "/>
  <edge id="588157336" from="42447007" to="42432847" numLanes="4" width="3.5" shape="417.765519,-218.336611 417.071424,-219.602489 386.166091,-277.169341 385.027394,-279.292908 "/>
  <edge id="671208356" from="42456598" to="10125156115" numLanes="3" width="4.0" shape="293.626407,-137.153068 297.621822,-139.302171 383.908951,-185.706584 "/>
  <edge id="671208357" from="596775941" to="596775935" numLanes="3" width="3.5" shape="270.521344,-139.422212 270.180086,-140.048814 239.160218,-197.503428 236.343783,-202.719872 "/>
  <edge id="776858323" from="8914958309" to="7248586387" numLanes="1" width="4.0" shape="134.102828,-247.741705 135.558998,-244.844425 137.992756,-240.013160 138.156974,-238.915617 137.399546,-238.104524 124.630410,-231.104242 123.644449,-230.927568 122.925386,-231.624907 120.357521,-236.598916 118.840042,-239.540344 "/>
  <edge id="962626218" from="8904527314" to="5706568771" numLanes="4" width="3.5" shape="67.860561,117.222572 50.904005,86.330174 50.896622,86.316759 50.398033,85.413094 "/>
  <edge id="964208970" from="8918680640" to="42445953" numLanes="4" width="3.5" shape="195.494492,57.570537 201.006393,67.456358 205.638983,76.087974 205.765838,76.314176 208.155905,80.396865 "/>
  <edge id="988984235" from="9140929842" to="42450426" numLanes="4" width="3.5" shape="-113.185150,-217.350689 -144.036338,-275.075988 "/>
  <edge id="1022813500" from="4347534768" to="9433097821" numLanes="2" width="3.5" shape="40.092185,171.582906 37.478620,171.583283 34.979540,171.300862 32.480061,170.791252 29.624199,169.783887 27.585293,168.716522 24.830658,166.924368 22.880090,165.355512 20.711047,163.167725 18.919864,160.843753 16.791373,157.498079 "/>
  <edge id="1052631409" from="8254176965" to="4347534783" numLanes="2" width="3.5" shape="119.794280,128.059248 88.767578,145.613565 84.342375,148.117275 "/>
  <edge id="1087048475" from="9960054857" to="42432825" numLanes="2" width="3.5" shape="33.786478,-101.115703 90.364951,-131.628545 93.356196,-133.245001 "/>
  <edge id="-1087048475" to="9960054857" from="42432825" numLanes="2" width="3.5" shape="93.356196,-133.245001 90.364951,-131.628545 33.786478,-101.115703 "/>
  <edge id="1106474772" from="42427762" to="10125156111" numLanes="3" width="4.0" shape="13.092234,14.332808 17.277566,12.091002 91.529263,-27.704903 "/>
  <edge id="1106474773" from="10125156111" to="42445947" numLanes="3" width="4.0" shape="91.541433,-27.711443 134.128285,-50.662649 137.250414,-52.320202 "/>
  <edge id="1106474774" from="10125156112" to="596775941" numLanes="3" width="4.0" shape="231.253911,-103.420777 263.586739,-120.805122 263.632977,-120.830245 266.010332,-122.135480 "/>
  <edge id="1106474775" from="10125156115" to="42447007" numLanes="3" width="4.0" shape="383.913364,-185.708960 408.972387,-199.212462 411.202070,-200.302190 "/>
  <edge id="1115153280" from="596775941" to="42456598" numLanes="3" width="4.0" shape="278.275117,-128.838812 281.338082,-130.505308 "/>
  <edge id="1150705656" from="5706568771" to="42427762" numLanes="4" width="4.0" shape="44.765717,72.768300 44.587769,72.425243 44.512812,72.284200 13.587572,15.469659 13.540773,15.378637 "/>
  <edge id="1174928402" from="42436510" to="4347534783" numLanes="4" width="3.5" shape="120.527770,215.519048 119.148567,212.958497 90.887610,160.204477 88.031551,154.847414 "/>
  <edge id="1205900284" from="4796245038" to="4207892896" numLanes="2" width="3.5" shape="-351.084142,299.600595 -304.830711,274.604491 "/>
  <edge id="-1205900284" to="4796245038" from="4207892896" numLanes="2" width="3.5" shape="-304.830711,274.604491 -351.084142,299.600595 "/>
  <edge id="1211049195" from="11220661302" to="42430394" numLanes="4" width="3.5" shape="-259.146242,195.385735 -242.084335,227.037525 -241.997393,227.193988 -239.609436,231.364939 "/>
  <edge id="1222356565" from="42440951" to="11336810277" numLanes="2" width="4.5" shape="-124.251009,-208.499739 -127.985627,-206.546710 -128.053714,-206.510357 -345.347380,-88.086274 "/>
  <edge id="1222356566" from="11336810277" to="42430375" numLanes="2" width="4.5" shape="-345.347328,-88.086302 -379.854885,-69.280410 -384.866534,-66.608639 "/>
  <edge id="195743336_1" from="42432818" to="42431544" numLanes="4" width="3.5" shape="-35.768636,-75.045939 -36.680213,-76.735672 -67.605859,-134.083625 -68.787885,-136.277340 "/>
  <edge id="388696207_1" from="42432825" to="42445947" numLanes="4" width="3.5" shape="98.209180,-124.436368 99.632552,-121.852952 128.245042,-69.974793 130.912512,-64.800796 131.302293,-64.031338 "/>
  <edge id="388696207_2" from="42445947" to="42445950" numLanes="4" width="3.5" shape="137.511659,-51.581519 137.666775,-51.265590 137.797030,-51.013358 168.145303,4.941684 "/>
  <edge id="195743342_1" from="42429970" to="42456683" numLanes="4" width="3.5" shape="197.182351,354.192613 164.699236,295.172210 162.789049,291.682147 "/>
  <edge id="195743342_2" from="42456683" to="42436510" numLanes="4" width="3.5" shape="158.870123,284.617180 157.778735,282.675629 126.178885,225.840208 124.323177,222.478840 "/>
  <edge id="5673461_1" from="42456683" to="42445961" numLanes="1" width="4.0" shape="161.837573,289.966465 165.030927,288.241257 281.903332,225.241523 281.910559,225.237608 282.704864,224.805218 286.228957,222.909018 "/>
  <edge id="46334594_1" from="42447020" to="6177439750" numLanes="2" width="3.5" shape="483.054540,-67.422901 369.132982,-6.048652 363.717872,-3.131248 "/>
  <edge id="569345537_2" from="42430371" to="42430375" numLanes="4" width="3.5" shape="-430.428139,-121.634161 -429.760437,-120.392326 -405.532581,-75.377039 -399.046535,-63.322536 -398.430729,-62.178524 "/>
  <edge id="46522160_1" from="Custom85" to="42429974" numLanes="1" width="4.0" shape="483.176086,203.147412 476.905185,206.532057 "/>
  <edge id="671208358_3" from="42429974" to="Custom86" numLanes="3" width="3.5" shape="470.465539,216.776607 472.318959,220.279317 472.336243,220.311707 502.735310,276.802631 506.304866,283.430027 506.312226,283.443644 509.633522,289.566795 "/>
  <edge id="68674962_1" from="Custom87" to="596775998" numLanes="3" width="3.5" shape="503.547596,292.865264 500.179712,286.646944 496.680186,280.149806 465.966867,223.111517 465.963003,223.104355 464.295921,220.019849 "/>
  <edge id="46522160_2" from="42429974" to="596775998" numLanes="1" width="4.0" shape="467.642594,211.491530 461.473932,214.768044 "/>
  <edge id="196116988_1" from="4796245038" to="42440025" numLanes="2" width="3.5" shape="-351.084142,299.600595 -462.932061,360.048916 -470.180853,363.969082 -472.530299,364.387199 -474.300976,362.787380 -510.441725,299.137884 "/>
  <edge id="-196116988_1" to="4796245038" from="42440025" numLanes="2" width="3.5" shape="-510.441725,299.137884 -474.300976,362.787380 -472.530299,364.387199 -470.180853,363.969082 -462.932061,360.048916 -351.084142,299.600595 "/>
  <edge id="198595461_1" from="Custom88" to="42436514" numLanes="1" width="4.0" shape="405.554014,64.166694 401.321170,66.452810 "/>
  <edge id="671208358_2" from="6177439750" to="42436514" numLanes="3" width="3.5" shape="357.906143,8.393047 358.375859,9.310452 358.434353,9.421408 389.550259,66.773700 391.130784,69.691145 "/>
  <edge id="198924552_1" from="42445950" to="596775946" numLanes="2" width="5.0" shape="186.184749,8.465073 188.891893,6.851348 207.134057,-3.406244 299.552006,-52.217508 299.588467,-52.236958 302.702852,-53.914910 "/>
  <edge id="68674962_3" from="596775946" to="596775941" numLanes="3" width="3.5" shape="307.848435,-70.335143 277.079574,-127.045017 "/>
  <edge id="226041012_1" from="596775907" to="42445941" numLanes="1" width="10.0" shape="142.559928,-351.630136 139.371324,-349.915149 28.558008,-290.266850 25.658549,-288.892488 "/>
  <edge id="226041012_2" from="42445941" to="42440951" numLanes="1" width="10.0" shape="12.780866,-282.391324 11.946242,-281.944003 -107.186690,-218.133561 -112.079231,-215.510550 "/>
  <edge id="308322447_1" from="42440025" to="42430390" numLanes="3" width="3.5" shape="-505.178485,294.364265 -497.529993,290.302193 -497.471526,290.270666 -278.852039,170.592522 -273.941060,167.906313 "/>
  <edge id="308322447_2" from="42430390" to="42427764" numLanes="3" width="3.5" shape="-261.639214,161.241121 -256.157162,158.299192 -58.359519,52.128474 -58.348143,52.122350 -53.277158,49.384330 "/>
  <edge id="497258108_1" from="42430384" to="42430390" numLanes="4" width="3.5" shape="-312.309455,96.071424 -310.916977,98.678218 -279.923361,156.769708 -279.773470,157.050685 "/>
  <edge id="497258108_2" from="42430390" to="11220661302" numLanes="4" width="3.5" shape="-273.144317,169.414952 -272.449328,170.704709 -259.146369,195.385498 "/>
  <edge id="569345537_1" from="Custom89" to="42430367" numLanes="4" width="3.5" shape="-474.411439,-203.375958 -473.233854,-201.188876 "/>
  <edge id="569345537_3" from="42430367" to="42430371" numLanes="4" width="3.5" shape="-469.441423,-194.145119 -467.247817,-190.070765 -437.245736,-134.311455 -437.058463,-133.963286 "/>
  <edge id="196116988_2" from="42440025" to="42440022" numLanes="2" width="3.5" shape="-517.354460,286.963563 -552.218677,225.563097 "/>
  <edge id="-196116988_2" to="42440025" from="42440022" numLanes="2" width="3.5" shape="-552.218677,225.563097 -517.354460,286.963563 "/>
  <edge id="497165753_1" from="596775935" to="596775951" numLanes="3" width="3.5" shape="229.724249,-215.049484 227.210031,-219.759048 196.416576,-277.495806 194.970521,-280.203808 "/>
  <edge id="497165753_2" from="596775951" to="596775907" numLanes="3" width="3.5" shape="189.778491,-289.908652 189.588925,-290.262607 189.581374,-290.276655 159.045559,-346.878897 "/>
  <edge id="528748997_2" from="596775951" to="42443613" numLanes="2" width="4.0" shape="196.514886,-281.052784 198.789168,-282.276191 "/>
  <edge id="528748997_3" from="42443613" to="42443614" numLanes="2" width="4.0" shape="211.120454,-289.010016 214.716534,-291.003245 329.335433,-353.625799 "/>
  <edge id="196116988_4" from="42440020" to="42440015" numLanes="2" width="3.5" shape="-641.137006,68.969390 -674.247854,10.659197 "/>
  <edge id="-196116988_4" to="42440020" from="42440015" numLanes="2" width="3.5" shape="-674.247854,10.659197 -641.137006,68.969390 "/>
  <edge id="541350711_1" from="42430375" to="42430378" numLanes="4" width="3.5" shape="-391.745253,-49.836801 -361.747517,5.207391 "/>
  <edge id="541350711_2" from="42430378" to="42430384" numLanes="4" width="3.5" shape="-355.043303,17.493872 -353.872075,19.645510 -322.679275,76.866796 -321.778075,78.520803 "/>
  <edge id="618990022_1" from="42431549" to="42430378" numLanes="2" width="4.0" shape="-592.040639,141.326920 -580.234662,134.977839 -521.767023,103.578226 -514.222437,99.526505 -504.404198,94.253762 -497.930868,90.777364 -490.903747,87.003568 -455.574015,68.030469 -451.005006,65.576793 -402.282735,39.411898 -361.372461,17.442525 -356.533758,14.844098 "/>
  <edge id="618990022_2" from="42430378" to="42431544" numLanes="2" width="4.0" shape="-344.169656,8.204475 -339.783180,5.848906 -312.679434,-8.705915 -282.124070,-25.114118 -241.858277,-46.736566 -87.597069,-129.571179 -82.569448,-132.270820 "/>
  <edge id="528748997_4" from="8914958309" to="596775951" numLanes="2" width="4.0" shape="139.490052,-250.592321 161.291140,-262.204118 161.297433,-262.207477 181.199637,-272.853485 184.162779,-274.434733 "/>
  <edge id="528748997_1" from="42443612" to="7248586387" numLanes="2" width="4.0" shape="66.878265,-212.150937 70.576338,-214.095770 105.905492,-232.701367 105.921739,-232.709971 113.570239,-236.782960 "/>
  <edge id="528748997_5" from="7248586387" to="8914958309" numLanes="2" width="4.0" shape="120.631861,-240.544575 132.430089,-246.831226 "/>
  <edge id="195743336_2" from="42431544" to="42440951" numLanes="4" width="3.5" shape="-75.500225,-148.620134 -96.333278,-186.631135 -106.202005,-204.642887 -106.406789,-205.015844 "/>
  <edge id="195743336_3" from="42440951" to="9140929842" numLanes="4" width="3.5" shape="-113.150798,-217.289251 -113.224925,-217.424058 "/>
  <edge id="5673461_2" from="42445961" to="596775985" numLanes="1" width="4.0" shape="298.560752,216.269571 301.607559,214.628154 412.160114,155.665639 412.198206,155.644788 416.160208,153.419867 "/>
  <edge id="68674962_2" from="596775998" to="596775985" numLanes="3" width="3.5" shape="460.479948,212.976483 459.166653,210.558323 427.775545,152.832256 427.771222,152.824323 426.283646,150.099955 "/>
  <edge id="458180199_1" from="42445953" to="42436511" numLanes="4" width="3.5" shape="212.054003,87.216248 213.045470,88.993106 244.530467,145.633388 245.845079,148.001396 "/>
  <edge id="458180199_3" from="42436511" to="42445961" numLanes="4" width="3.5" shape="249.638839,154.940962 251.567903,158.524744 281.836849,214.757831 282.325019,215.664248 283.385808,217.631886 "/>
  <edge id="198595461_3" from="42436511" to="42436510" numLanes="1" width="4.0" shape="246.772606,149.672211 243.316385,151.533969 243.308638,151.538164 242.513353,151.971090 192.990458,178.688907 125.667748,215.003610 121.487337,217.262810 "/>
  <edge id="458180199_2" from="42445961" to="42429971" numLanes="4" width="3.5" shape="287.197641,224.683324 289.033795,228.070850 319.816557,284.906294 321.192912,287.452238 "/>
  <edge id="458180199_4" from="42429971" to="Custom90" numLanes="4" width="3.5" shape="324.990192,294.485205 326.586164,297.444846 "/>
  <edge id="46522160_3" from="596775998" to="42429971" numLanes="1" width="4.0" shape="452.198578,219.707533 448.491885,221.686626 336.653279,281.379249 336.645752,281.383288 334.464972,282.559250 "/>
  <edge id="46522160_4" from="42429971" to="42429970" numLanes="1" width="4.0" shape="322.139453,289.200222 318.960500,290.911638 318.861875,290.968411 317.881643,291.570433 198.194125,355.993409 "/>
  <edge id="46334594_2" from="6177439750" to="6177439752" numLanes="2" width="3.5" shape="354.428237,1.873576 348.363607,5.140924 "/>
  <edge id="46334594_3" from="6177439752" to="42445953" numLanes="2" width="3.5" shape="339.110866,10.125891 334.899236,12.394935 325.760844,17.318320 224.242818,72.012963 220.720772,73.910561 "/>
  <edge id="68674962_5" from="6177439752" to="596775946" numLanes="3" width="3.5" shape="348.114614,4.695374 345.537230,-0.066085 315.105644,-56.590941 314.408933,-57.906902 "/>
  <edge id="671208358_1" from="42456598" to="42448317" numLanes="3" width="3.5" shape="283.294444,-130.468850 313.702548,-73.737895 "/>
  <edge id="671208358_5" from="42448317" to="6177439750" numLanes="3" width="3.5" shape="320.534069,-61.413272 321.354359,-59.944938 351.406472,-3.734486 351.427796,-3.695007 354.231733,1.443459 "/>
  <edge id="198924552_2" from="596775946" to="42448317" numLanes="2" width="5.0" shape="315.040999,-60.664788 318.011776,-62.314851 "/>
  <edge id="198924552_3" from="42448317" to="42447009" numLanes="2" width="5.0" shape="330.240416,-69.026792 333.611303,-70.854979 349.155087,-78.981101 349.204852,-79.007476 445.660023,-130.824916 448.092296,-132.001303 "/>
  <edge id="671208358_4" from="42436514" to="42459114" numLanes="3" width="3.5" shape="394.923740,76.717202 396.844421,80.287667 427.421873,137.229732 428.771396,139.753677 "/>
  <edge id="671208358_6" from="42459114" to="42429974" numLanes="3" width="3.5" shape="432.584978,146.827295 434.341830,150.059279 465.191018,206.963520 466.713351,209.771433 "/>
  <edge id="5673461_3" from="596775985" to="42459114" numLanes="1" width="4.0" shape="425.344706,148.387441 431.599815,145.044217 "/>
  <edge id="5673461_4" from="42459114" to="Custom91" numLanes="1" width="4.0" shape="440.871204,140.080179 445.347590,137.679276 "/>
  <edge id="196116988_3" from="42440022" to="42431549" numLanes="2" width="3.5" shape="-560.612794,210.780039 -596.695554,147.234467 "/>
  <edge id="-196116988_3" to="42440022" from="42431549" numLanes="2" width="3.5" shape="-596.695554,147.234467 -560.612794,210.780039 "/>
  <edge id="196116988_5" from="42431549" to="42440020" numLanes="2" width="3.5" shape="-602.127097,137.668991 -634.224056,81.143590 "/>
  <edge id="-196116988_5" to="42431549" from="42440020" numLanes="2" width="3.5" shape="-634.224056,81.143590 -602.127097,137.668991 "/>
  <edge id="198595461_2" from="42436514" to="596775930" numLanes="1" width="4.0" shape="392.077942,71.449997 385.798737,74.848140 "/>
  <edge id="198595461_4" from="596775930" to="42436511" numLanes="1" width="4.0" shape="376.559815,79.830703 371.601841,82.495270 261.855215,141.547029 261.126523,141.937146 261.121494,141.939847 259.119502,143.019009 "/>
  <edge id="68674962_4" from="596775985" to="596775930" numLanes="3" width="3.5" shape="422.493836,143.098362 420.866094,140.064639 390.447933,83.481406 388.649790,80.140862 "/>
  <edge id="68674962_6" from="596775930" to="6177439752" numLanes="3" width="3.5" shape="384.865898,73.100150 383.172092,69.943496 352.583377,13.008923 351.917628,11.763935 "/>
</edges>
