<?xml version="1.0" encoding="UTF-8"?>


<net version="1.9" junctionCornerDetail="5" limitTurnSpeed="5.50" xmlns:xsi="http://www.w3.org/2001/XMLSchema-instance" xsi:noNamespaceSchemaLocation="http://sumo.dlr.de/xsd/net_file.xsd">

    <location netOffset="682.54,362.03" convBoundary="0.00,0.00,1196.78,767.60" origBoundary="-688.77,-364.01,514.25,405.58" projParameter="!"/>

    <edge id=":10125156111_0" function="internal">
        <lane id=":10125156111_0_0" index="0" speed="13.89" length="0.30" width="4.00" shape="769.21,325.58 769.47,325.44"/>
        <lane id=":10125156111_0_1" index="1" speed="13.89" length="0.30" width="4.00" shape="771.10,329.10 771.37,328.96"/>
        <lane id=":10125156111_0_2" index="2" speed="13.89" length="0.30" width="4.00" shape="772.99,332.63 773.26,332.48"/>
    </edge>
    <edge id=":10125156112_0" function="internal">
        <lane id=":10125156112_0_0" index="0" speed="13.89" length="0.30" width="4.00" shape="908.90,249.88 909.19,249.73"/>
        <lane id=":10125156112_0_1" index="1" speed="13.89" length="0.30" width="4.00" shape="910.81,253.39 911.08,253.25"/>
        <lane id=":10125156112_0_2" index="2" speed="13.89" length="0.30" width="4.00" shape="912.72,256.90 912.97,256.78"/>
    </edge>
    <edge id=":10125156115_0" function="internal">
        <lane id=":10125156115_0_0" index="0" speed="13.89" length="0.30" width="4.00" shape="1061.58,167.59 1061.84,167.44"/>
        <lane id=":10125156115_0_1" index="1" speed="13.89" length="0.30" width="4.00" shape="1063.47,171.11 1063.74,170.97"/>
        <lane id=":10125156115_0_2" index="2" speed="13.89" length="0.30" width="4.00" shape="1065.37,174.63 1065.64,174.49"/>
    </edge>
    <edge id=":11220661302_0" function="internal">
        <lane id=":11220661302_0_0" index="0" speed="13.89" length="0.30" width="3.50" shape="434.10,551.47 434.24,551.73"/>
        <lane id=":11220661302_0_1" index="1" speed="13.89" length="0.30" width="3.50" shape="431.02,553.13 431.16,553.39"/>
        <lane id=":11220661302_0_2" index="2" speed="13.89" length="0.30" width="3.50" shape="427.94,554.79 428.08,555.05"/>
        <lane id=":11220661302_0_3" index="3" speed="13.89" length="0.30" width="3.50" shape="424.86,556.45 425.00,556.71"/>
    </edge>
    <edge id=":11336810277_0" function="internal">
        <lane id=":11336810277_0_0" index="0" speed="13.89" length="0.10" width="4.50" shape="340.42,279.87 340.42,279.87"/>
        <lane id=":11336810277_0_1" index="1" speed="13.89" length="0.10" width="4.50" shape="338.27,275.92 338.27,275.92"/>
    </edge>
    <edge id=":3977886253_0" function="internal">
        <lane id=":3977886253_0_0" index="0" speed="13.89" length="0.30" width="3.50" shape="704.64,70.88 704.79,71.14"/>
        <lane id=":3977886253_0_1" index="1" speed="13.89" length="0.30" width="3.50" shape="701.56,72.54 701.71,72.80"/>
        <lane id=":3977886253_0_2" index="2" speed="13.89" length="0.30" width="3.50" shape="698.48,74.20 698.63,74.46"/>
        <lane id=":3977886253_0_3" index="3" speed="13.89" length="0.30" width="3.50" shape="695.40,75.86 695.55,76.12"/>
    </edge>
    <edge id=":4207892895_0" function="internal">
        <lane id=":4207892895_0_0" index="0" speed="13.89" length="0.30" width="3.50" shape="406.74,626.91 406.47,627.05"/>
        <lane id=":4207892895_0_1" index="1" speed="13.89" length="0.30" width="3.50" shape="405.07,623.83 404.81,623.97"/>
    </edge>
    <edge id=":4207892895_2" function="internal">
        <lane id=":4207892895_2_0" index="0" speed="13.89" length="0.30" width="3.50" shape="401.48,617.81 401.75,617.67"/>
        <lane id=":4207892895_2_1" index="1" speed="13.89" length="0.30" width="3.50" shape="403.15,620.89 403.41,620.75"/>
    </edge>
    <edge id=":4207892896_0" function="internal">
        <lane id=":4207892896_0_0" index="0" speed="13.89" length="0.10" width="3.50" shape="380.21,641.25 380.21,641.25"/>
        <lane id=":4207892896_0_1" index="1" speed="13.89" length="0.10" width="3.50" shape="378.54,638.17 378.54,638.17"/>
    </edge>
    <edge id=":4207892896_2" function="internal">
        <lane id=":4207892896_2_0" index="0" speed="13.89" length="0.10" width="3.50" shape="375.21,632.01 375.21,632.01"/>
        <lane id=":4207892896_2_1" index="1" speed="13.89" length="0.10" width="3.50" shape="376.88,635.09 376.88,635.09"/>
    </edge>
    <edge id=":4207938835_0" function="internal">
        <lane id=":4207938835_0_0" index="0" speed="13.89" length="0.26" width="3.50" shape="251.72,145.42 251.42,145.58"/>
        <lane id=":4207938835_0_1" index="1" speed="13.89" length="0.26" width="3.50" shape="250.02,142.36 249.85,142.44"/>
    </edge>
    <edge id=":42427762_0" function="internal">
        <lane id=":42427762_0_0" index="0" speed="13.89" length="14.01" width="3.50" shape="683.64,383.80 677.81,371.19"/>
        <lane id=":42427762_0_1" index="1" speed="13.89" length="14.01" width="3.50" shape="687.19,381.97 680.89,369.52"/>
        <lane id=":42427762_0_2" index="2" speed="13.89" length="14.01" width="3.50" shape="690.75,380.14 683.96,367.85"/>
        <lane id=":42427762_0_3" index="3" speed="13.89" length="14.01" width="3.50" shape="694.30,378.32 692.42,374.57 690.84,372.16 689.18,369.80 687.04,366.18"/>
    </edge>
    <edge id=":42427762_4" function="internal">
        <lane id=":42427762_4_0" index="0" speed="6.30" length="7.69" width="4.00" shape="694.30,378.32 693.12,375.43 692.47,373.26 692.36,371.81 692.80,371.07"/>
        <lane id=":42427762_4_1" index="1" speed="4.87" length="4.11" width="4.00" shape="694.30,378.32 693.85,377.02 693.75,375.97 694.02,375.17 694.65,374.62"/>
    </edge>
    <edge id=":42427762_6" function="internal">
        <lane id=":42427762_6_0" index="0" speed="4.79" length="4.16" width="3.50" shape="677.30,374.83 678.05,374.21 678.39,373.40 678.30,372.39 677.81,371.19"/>
        <lane id=":42427762_6_1" index="1" speed="7.09" length="10.65" width="3.50" shape="678.71,378.61 680.90,376.94 682.00,374.86 681.99,372.39 680.89,369.52"/>
        <lane id=":42427762_6_2" index="2" speed="7.90" length="13.55" width="3.50" shape="678.71,378.61 682.25,376.21 684.31,373.62 684.88,370.83 683.96,367.85"/>
    </edge>
    <edge id=":42427762_9" function="internal">
        <lane id=":42427762_9_0" index="0" speed="13.89" length="17.94" width="4.00" shape="680.59,382.14 684.28,378.74 685.50,374.97 686.72,371.21 690.40,367.82"/>
    </edge>
    <edge id=":42427764_0" function="internal">
        <lane id=":42427764_0_0" index="0" speed="7.28" length="10.39" width="4.00" shape="633.39,410.36 632.67,407.62 632.94,405.24 634.20,403.22 636.44,401.56"/>
        <lane id=":42427764_0_1" index="1" speed="6.39" length="7.71" width="4.00" shape="633.39,410.36 633.37,409.24 634.19,407.98 635.85,406.59 638.35,405.07"/>
    </edge>
    <edge id=":42427764_2" function="internal">
        <lane id=":42427764_2_0" index="0" speed="13.89" length="11.00" width="4.00" shape="625.11,403.71 634.53,398.04"/>
        <lane id=":42427764_2_1" index="1" speed="13.89" length="11.00" width="4.00" shape="626.77,406.79 636.44,401.56"/>
        <lane id=":42427764_2_2" index="2" speed="13.89" length="11.00" width="4.00" shape="628.43,409.87 638.35,405.07"/>
    </edge>
    <edge id=":42429970_0" function="internal">
        <lane id=":42429970_0_0" index="0" speed="5.09" length="4.82" width="3.50" shape="881.68,719.78 881.12,720.37 881.00,721.30 881.30,722.57 882.03,724.18"/>
        <lane id=":42429970_0_1" index="1" speed="6.11" length="7.51" width="3.50" shape="881.68,719.78 879.77,721.09 878.68,722.53 878.40,724.11 878.93,725.82"/>
        <lane id=":42429970_0_2" index="2" speed="7.09" length="10.57" width="3.50" shape="881.68,719.78 878.42,721.81 876.37,723.77 875.50,725.65 875.83,727.45"/>
        <lane id=":42429970_0_3" index="3" speed="7.99" length="13.78" width="3.50" shape="881.68,719.78 877.08,722.54 874.05,725.01 872.61,727.19 872.74,729.08"/>
    </edge>
    <edge id=":42429970_4" function="internal">
        <lane id=":42429970_4_0" index="0" speed="7.99" length="13.79" width="3.50" shape="881.68,719.78 876.84,722.10 873.11,723.27 870.50,723.28 868.99,722.13"/>
        <lane id=":42429970_4_1" index="1" speed="7.09" length="10.58" width="3.50" shape="881.68,719.78 878.19,721.38 875.42,722.02 873.38,721.71 872.05,720.44"/>
        <lane id=":42429970_4_2" index="2" speed="6.11" length="7.51" width="3.50" shape="881.68,719.78 879.53,720.65 877.73,720.77 876.26,720.13 875.12,718.75"/>
        <lane id=":42429970_4_3" index="3" speed="5.09" length="4.83" width="3.50" shape="881.68,719.78 880.88,719.92 880.04,719.52 879.14,718.56 878.19,717.06"/>
    </edge>
    <edge id=":42429971_0" function="internal">
        <lane id=":42429971_0_0" index="0" speed="5.06" length="4.77" width="3.50" shape="1017.95,646.35 1017.40,646.93 1017.28,647.85 1017.58,649.10 1018.31,650.70"/>
        <lane id=":42429971_0_1" index="1" speed="6.08" length="7.48" width="3.50" shape="1017.95,646.35 1016.05,647.66 1014.96,649.09 1014.69,650.66 1015.23,652.36"/>
    </edge>
    <edge id=":42429971_2" function="internal">
        <lane id=":42429971_2_0" index="0" speed="13.89" length="14.00" width="4.00" shape="1017.95,646.35 1005.63,652.99"/>
    </edge>
    <edge id=":42429971_3" function="internal">
        <lane id=":42429971_3_0" index="0" speed="13.89" length="8.00" width="3.50" shape="1014.51,643.65 1018.31,650.70"/>
        <lane id=":42429971_3_1" index="1" speed="13.89" length="8.00" width="3.50" shape="1011.43,645.32 1015.23,652.36"/>
        <lane id=":42429971_3_2" index="2" speed="13.89" length="8.00" width="3.50" shape="1008.35,646.98 1012.15,654.02"/>
        <lane id=":42429971_3_3" index="3" speed="13.89" length="8.00" width="3.50" shape="1005.27,648.65 1009.07,655.68"/>
    </edge>
    <edge id=":42429971_7" function="internal">
        <lane id=":42429971_7_0" index="0" speed="4.98" length="4.77" width="4.00" shape="1005.27,648.65 1006.01,650.24 1006.31,651.49 1006.18,652.41 1005.63,652.99"/>
    </edge>
    <edge id=":42429974_0" function="internal">
        <lane id=":42429974_0_0" index="0" speed="5.08" length="4.80" width="3.50" shape="1160.39,570.32 1159.83,570.91 1159.71,571.83 1160.00,573.10 1160.73,574.70"/>
    </edge>
    <edge id=":42429974_1" function="internal">
        <lane id=":42429974_1_0" index="0" speed="13.89" length="10.52" width="4.00" shape="1160.39,570.32 1151.12,575.29"/>
    </edge>
    <edge id=":42429974_2" function="internal">
        <lane id=":42429974_2_0" index="0" speed="13.89" length="7.99" width="3.50" shape="1156.95,567.64 1160.73,574.70"/>
        <lane id=":42429974_2_1" index="1" speed="13.89" length="7.99" width="3.50" shape="1153.87,569.30 1157.64,576.34"/>
        <lane id=":42429974_2_2" index="2" speed="13.89" length="7.99" width="3.50" shape="1150.79,570.97 1154.55,577.98"/>
    </edge>
    <edge id=":42429974_5" function="internal">
        <lane id=":42429974_5_0" index="0" speed="4.97" length="4.75" width="4.00" shape="1150.79,570.97 1151.52,572.55 1151.82,573.79 1151.68,574.71 1151.12,575.29"/>
    </edge>
    <edge id=":42430367_0" function="internal">
        <lane id=":42430367_0_0" index="0" speed="4.28" length="3.22" width="3.50" shape="224.36,159.28 223.76,159.76 223.48,160.39 223.52,161.16 223.88,162.07"/>
        <lane id=":42430367_0_1" index="1" speed="6.48" length="8.86" width="3.50" shape="222.70,156.19 220.85,157.59 219.92,159.32 219.90,161.36 220.80,163.73"/>
        <lane id=":42430367_0_2" index="2" speed="7.37" length="11.78" width="3.50" shape="222.70,156.19 219.51,158.32 217.61,160.56 217.01,162.92 217.72,165.39"/>
    </edge>
    <edge id=":42430367_3" function="internal">
        <lane id=":42430367_3_0" index="0" speed="13.89" length="7.97" width="3.50" shape="220.10,155.07 223.88,162.07"/>
        <lane id=":42430367_3_1" index="1" speed="13.89" length="7.97" width="3.50" shape="217.02,156.72 220.80,163.73"/>
        <lane id=":42430367_3_2" index="2" speed="13.89" length="7.97" width="3.50" shape="213.93,158.37 217.72,165.39"/>
        <lane id=":42430367_3_3" index="3" speed="13.89" length="7.97" width="3.50" shape="210.84,160.02 214.64,167.05"/>
    </edge>
    <edge id=":42430371_0" function="internal">
        <lane id=":42430371_0_0" index="0" speed="5.28" length="5.46" width="4.50" shape="256.27,222.26 257.36,224.03 258.35,225.19 259.25,225.71 260.06,225.61"/>
    </edge>
    <edge id=":42430371_1" function="internal">
        <lane id=":42430371_1_0" index="0" speed="13.89" length="13.99" width="3.50" shape="256.27,222.26 262.89,234.57"/>
        <lane id=":42430371_1_1" index="1" speed="13.89" length="13.99" width="3.50" shape="253.19,223.92 259.81,236.23"/>
        <lane id=":42430371_1_2" index="2" speed="13.89" length="13.99" width="3.50" shape="250.10,225.57 256.73,237.89"/>
        <lane id=":42430371_1_3" index="3" speed="13.89" length="13.99" width="3.50" shape="247.02,227.23 253.65,239.56"/>
    </edge>
    <edge id=":42430371_5" function="internal">
        <lane id=":42430371_5_0" index="0" speed="13.89" length="14.03" width="4.50" shape="247.61,232.10 260.06,225.61"/>
        <lane id=":42430371_5_1" index="1" speed="13.89" length="14.03" width="4.50" shape="250.00,236.49 262.19,229.58"/>
    </edge>
    <edge id=":42430371_7" function="internal">
        <lane id=":42430371_7_0" index="0" speed="6.29" length="7.84" width="3.50" shape="250.00,236.49 252.15,235.63 253.98,235.57 255.51,236.33 256.73,237.89"/>
        <lane id=":42430371_7_1" index="1" speed="5.34" length="5.18" width="3.50" shape="250.00,236.49 250.81,236.37 251.68,236.83 252.63,237.90 253.65,239.56"/>
    </edge>
    <edge id=":42430375_0" function="internal">
        <lane id=":42430375_0_0" index="0" speed="5.36" length="5.41" width="3.50" shape="300.84,301.38 300.31,302.00 300.25,303.03 300.66,304.47 301.55,306.33"/>
        <lane id=":42430375_0_1" index="1" speed="7.46" length="11.85" width="3.50" shape="298.72,297.41 296.95,299.00 296.33,301.30 296.83,304.30 298.47,308.00"/>
        <lane id=":42430375_0_2" index="2" speed="8.17" length="14.52" width="3.50" shape="298.72,297.41 295.60,299.73 294.01,302.54 293.94,305.86 295.40,309.68"/>
    </edge>
    <edge id=":42430375_3" function="internal">
        <lane id=":42430375_3_0" index="0" speed="13.89" length="14.24" width="9.00" shape="298.72,297.41 294.93,299.83 292.37,302.08 290.17,304.14 287.43,306.02"/>
    </edge>
    <edge id=":42430375_4" function="internal">
        <lane id=":42430375_4_0" index="0" speed="13.89" length="14.00" width="3.50" shape="294.89,294.04 301.55,306.33"/>
        <lane id=":42430375_4_1" index="1" speed="13.89" length="14.00" width="3.50" shape="291.81,295.70 298.47,308.00"/>
        <lane id=":42430375_4_2" index="2" speed="13.89" length="14.00" width="3.50" shape="288.73,297.36 295.40,309.68"/>
        <lane id=":42430375_4_3" index="3" speed="13.89" length="14.00" width="3.50" shape="285.65,299.02 292.33,311.35"/>
    </edge>
    <edge id=":42430375_8" function="internal">
        <lane id=":42430375_8_0" index="0" speed="6.06" length="7.59" width="9.00" shape="285.65,299.02 287.01,301.77 287.76,303.85 287.90,305.27 287.43,306.02"/>
    </edge>
    <edge id=":42430378_0" function="internal">
        <lane id=":42430378_0_0" index="0" speed="5.40" length="5.76" width="4.00" shape="331.55,361.37 332.70,363.25 333.75,364.47 334.69,365.04 335.52,364.95"/>
    </edge>
    <edge id=":42430378_1" function="internal">
        <lane id=":42430378_1_0" index="0" speed="13.89" length="14.00" width="3.50" shape="331.55,361.37 338.25,373.66"/>
        <lane id=":42430378_1_1" index="1" speed="13.89" length="14.00" width="3.50" shape="328.47,363.04 335.18,375.34"/>
        <lane id=":42430378_1_2" index="2" speed="13.89" length="14.00" width="3.50" shape="325.40,364.72 332.10,377.01"/>
        <lane id=":42430378_1_3" index="3" speed="13.89" length="14.00" width="3.50" shape="322.33,366.39 329.03,378.68"/>
    </edge>
    <edge id=":42430378_5" function="internal">
        <lane id=":42430378_5_0" index="0" speed="13.89" length="14.03" width="4.00" shape="323.16,371.58 335.52,364.95"/>
        <lane id=":42430378_5_1" index="1" speed="13.89" length="14.03" width="4.00" shape="325.07,375.10 337.42,368.47"/>
    </edge>
    <edge id=":42430378_7" function="internal">
        <lane id=":42430378_7_0" index="0" speed="6.37" length="8.30" width="3.50" shape="325.07,375.10 327.25,374.29 329.14,374.33 330.76,375.24 332.10,377.01"/>
        <lane id=":42430378_7_1" index="1" speed="5.45" length="5.74" width="3.50" shape="325.07,375.10 325.90,375.01 326.83,375.58 327.88,376.80 329.03,378.68"/>
    </edge>
    <edge id=":42430384_0" function="internal">
        <lane id=":42430384_0_0" index="0" speed="5.28" length="5.48" width="3.50" shape="380.34,447.29 379.80,447.92 379.74,448.97 380.15,450.44 381.03,452.32"/>
        <lane id=":42430384_0_1" index="1" speed="7.15" length="11.00" width="3.50" shape="378.69,444.21 376.90,445.76 376.19,447.90 376.53,450.64 377.95,453.97"/>
    </edge>
    <edge id=":42430384_2" function="internal">
        <lane id=":42430384_2_0" index="0" speed="13.89" length="17.46" width="3.50" shape="378.69,444.21 374.46,447.11 372.03,449.77 369.61,452.45 365.39,455.35"/>
    </edge>
    <edge id=":42430384_3" function="internal">
        <lane id=":42430384_3_0" index="0" speed="3.82" length="5.11" width="3.50" shape="378.69,444.21 377.12,444.06 376.32,443.50 376.29,442.52 377.03,441.13"/>
    </edge>
    <edge id=":42430384_4" function="internal">
        <lane id=":42430384_4_0" index="0" speed="5.29" length="5.50" width="3.50" shape="371.53,434.71 372.62,436.49 373.62,437.64 374.54,438.16 375.37,438.05"/>
    </edge>
    <edge id=":42430384_5" function="internal">
        <lane id=":42430384_5_0" index="0" speed="13.89" length="19.98" width="3.50" shape="371.53,434.71 381.03,452.32"/>
        <lane id=":42430384_5_1" index="1" speed="13.89" length="19.98" width="3.50" shape="368.45,436.38 377.95,453.97"/>
        <lane id=":42430384_5_2" index="2" speed="13.89" length="19.98" width="3.50" shape="365.38,438.05 374.86,455.62"/>
        <lane id=":42430384_5_3" index="3" speed="13.89" length="19.98" width="3.50" shape="362.30,439.72 371.77,457.27"/>
    </edge>
    <edge id=":42430384_9" function="internal">
        <lane id=":42430384_9_0" index="0" speed="7.91" length="13.75" width="3.50" shape="362.30,439.72 364.48,444.36 365.45,448.01 365.19,450.64 363.72,452.27"/>
    </edge>
    <edge id=":42430384_10" function="internal">
        <lane id=":42430384_10_0" index="0" speed="13.89" length="17.01" width="3.50" shape="360.39,446.11 375.37,438.05"/>
        <lane id=":42430384_10_1" index="1" speed="13.89" length="17.01" width="3.50" shape="362.06,449.19 377.03,441.13"/>
    </edge>
    <edge id=":42430384_12" function="internal">
        <lane id=":42430384_12_0" index="0" speed="7.90" length="13.76" width="3.50" shape="362.06,449.19 364.23,448.85 366.58,450.08 369.09,452.89 371.77,457.27"/>
    </edge>
    <edge id=":42430384_13" function="internal">
        <lane id=":42430384_13_0" index="0" speed="3.82" length="5.11" width="3.50" shape="362.06,449.19 363.63,449.34 364.43,449.90 364.46,450.88 363.72,452.27"/>
    </edge>
    <edge id=":42430390_0" function="internal">
        <lane id=":42430390_0_0" index="0" speed="4.79" length="4.32" width="3.50" shape="413.57,513.32 414.39,514.61 415.19,515.41 415.98,515.73 416.76,515.56"/>
    </edge>
    <edge id=":42430390_1" function="internal">
        <lane id=":42430390_1_0" index="0" speed="13.89" length="13.97" width="3.50" shape="413.57,513.32 420.16,525.60"/>
        <lane id=":42430390_1_1" index="1" speed="13.89" length="13.97" width="3.50" shape="410.48,514.96 417.08,527.27"/>
        <lane id=":42430390_1_2" index="2" speed="13.89" length="13.97" width="3.50" shape="407.39,516.61 414.00,528.94"/>
        <lane id=":42430390_1_3" index="3" speed="13.89" length="13.97" width="3.50" shape="404.30,518.26 410.93,530.61"/>
    </edge>
    <edge id=":42430390_5" function="internal">
        <lane id=":42430390_5_0" index="0" speed="13.89" length="15.39" width="3.50" shape="404.41,522.25 408.38,520.70 411.40,520.43 414.43,520.16 418.42,518.64"/>
        <lane id=":42430390_5_1" index="1" speed="13.89" length="15.39" width="3.50" shape="404.41,522.25 408.78,521.10 412.23,521.97 415.68,522.84 420.07,521.73"/>
    </edge>
    <edge id=":42430390_7" function="internal">
        <lane id=":42430390_7_0" index="0" speed="6.80" length="9.88" width="3.50" shape="406.08,525.32 408.30,524.61 410.36,524.97 412.26,526.41 414.00,528.94"/>
        <lane id=":42430390_7_1" index="1" speed="4.77" length="4.27" width="3.50" shape="407.76,528.39 408.53,528.22 409.31,528.53 410.11,529.33 410.93,530.61"/>
    </edge>
    <edge id=":42430394_0" function="internal">
        <lane id=":42430394_0_0" index="0" speed="6.10" length="7.71" width="4.00" shape="461.08,597.53 458.40,599.02 456.60,600.33 455.70,601.46 455.69,602.43"/>
    </edge>
    <edge id=":42430394_1" function="internal">
        <lane id=":42430394_1_0" index="0" speed="13.89" length="13.79" width="3.50" shape="461.08,597.53 449.03,604.03"/>
        <lane id=":42430394_1_1" index="1" speed="13.89" length="13.79" width="3.50" shape="459.51,594.40 447.28,601.00"/>
    </edge>
    <edge id=":42430394_3" function="internal">
        <lane id=":42430394_3_0" index="0" speed="3.82" length="5.11" width="3.50" shape="459.51,594.40 457.95,594.21 457.17,593.62 457.16,592.65 457.95,591.28"/>
    </edge>
    <edge id=":42430394_4" function="internal">
        <lane id=":42430394_4_0" index="0" speed="4.40" length="3.31" width="3.50" shape="453.56,587.31 454.11,588.02 454.77,588.39 455.52,588.44 456.37,588.15"/>
        <lane id=":42430394_4_1" index="1" speed="6.57" length="8.73" width="3.50" shape="450.53,589.05 451.98,590.92 453.71,591.91 455.69,592.03 457.95,591.28"/>
    </edge>
    <edge id=":42430394_6" function="internal">
        <lane id=":42430394_6_0" index="0" speed="13.89" length="14.27" width="4.00" shape="447.49,590.78 449.95,594.58 452.08,597.24 453.97,599.59 455.69,602.43"/>
    </edge>
    <edge id=":42430394_7" function="internal">
        <lane id=":42430394_7_0" index="0" speed="6.62" length="9.27" width="3.50" shape="444.45,592.52 446.26,595.90 447.34,598.44 447.68,600.14 447.28,601.00"/>
    </edge>
    <edge id=":42430394_8" function="internal">
        <lane id=":42430394_8_0" index="0" speed="13.89" length="14.19" width="3.50" shape="443.79,594.93 456.37,588.15"/>
        <lane id=":42430394_8_1" index="1" speed="13.89" length="14.19" width="3.50" shape="445.54,597.96 457.95,591.28"/>
    </edge>
    <edge id=":42430394_10" function="internal">
        <lane id=":42430394_10_0" index="0" speed="7.49" length="12.77" width="4.00" shape="445.54,597.96 448.48,596.91 451.16,597.31 453.56,599.14 455.69,602.43"/>
    </edge>
    <edge id=":42430394_11" function="internal">
        <lane id=":42430394_11_0" index="0" speed="3.82" length="5.11" width="3.50" shape="445.54,597.96 447.11,598.07 447.93,598.61 447.98,599.58 447.28,601.00"/>
    </edge>
    <edge id=":42431544_0" function="internal">
        <lane id=":42431544_0_0" index="0" speed="13.89" length="13.99" width="3.50" shape="602.96,231.56 596.30,219.30"/>
        <lane id=":42431544_0_1" index="1" speed="13.89" length="13.99" width="3.50" shape="606.05,229.90 599.37,217.62"/>
        <lane id=":42431544_0_2" index="2" speed="13.89" length="13.99" width="3.50" shape="609.13,228.24 602.44,215.93"/>
        <lane id=":42431544_0_3" index="3" speed="13.89" length="13.99" width="3.50" shape="612.21,226.58 605.51,214.25"/>
    </edge>
    <edge id=":42431544_4" function="internal">
        <lane id=":42431544_4_0" index="0" speed="5.35" length="5.68" width="4.00" shape="612.21,226.58 611.27,224.61 610.82,223.08 610.86,222.00 611.39,221.37"/>
    </edge>
    <edge id=":42431544_5" function="internal">
        <lane id=":42431544_5_0" index="0" speed="5.39" length="5.65" width="3.50" shape="597.14,224.47 597.67,223.84 597.70,222.76 597.24,221.25 596.30,219.30"/>
        <lane id=":42431544_5_1" index="1" speed="7.35" length="11.64" width="3.50" shape="599.03,227.99 600.80,226.41 601.44,224.15 600.97,221.22 599.37,217.62"/>
        <lane id=":42431544_5_2" index="2" speed="8.08" length="14.32" width="3.50" shape="599.03,227.99 602.15,225.69 603.76,222.91 603.85,219.66 602.44,215.93"/>
    </edge>
    <edge id=":42431544_8" function="internal">
        <lane id=":42431544_8_0" index="0" speed="13.89" length="14.76" width="4.00" shape="599.03,227.99 602.47,225.44 604.26,222.91 606.05,220.39 609.50,217.84"/>
    </edge>
    <edge id=":42431549_0" function="internal">
        <lane id=":42431549_0_0" index="0" speed="13.89" length="10.99" width="3.50" shape="81.27,511.85 75.84,502.29"/>
        <lane id=":42431549_0_1" index="1" speed="13.89" length="10.99" width="3.50" shape="84.32,510.12 78.89,500.56"/>
    </edge>
    <edge id=":42431549_2" function="internal">
        <lane id=":42431549_2_0" index="0" speed="7.15" length="2.53" width="4.00" shape="84.32,510.12 83.71,507.95 83.79,507.69"/>
    </edge>
    <edge id=":42431549_3" function="internal">
        <lane id=":42431549_3_0" index="0" speed="3.82" length="1.58" width="3.50" shape="84.32,510.12 84.43,508.55"/>
    </edge>
    <edge id=":42431549_8" function="internal">
        <lane id=":42431549_8_0" index="0" speed="7.15" length="8.70" width="4.00" shape="83.79,507.69 84.38,505.80 86.33,503.68 89.55,501.59"/>
    </edge>
    <edge id=":42431549_9" function="internal">
        <lane id=":42431549_9_0" index="0" speed="3.82" length="3.53" width="3.50" shape="84.43,508.55 84.98,507.74 85.95,507.69 87.36,508.40"/>
    </edge>
    <edge id=":42431549_4" function="internal">
        <lane id=":42431549_4_0" index="0" speed="4.30" length="3.20" width="4.00" shape="84.98,497.11 85.53,497.86 86.16,498.27 86.86,498.34 87.63,498.08"/>
    </edge>
    <edge id=":42431549_5" function="internal">
        <lane id=":42431549_5_0" index="0" speed="13.89" length="10.99" width="3.50" shape="84.98,497.11 90.40,506.67"/>
        <lane id=":42431549_5_1" index="1" speed="13.89" length="10.99" width="3.50" shape="81.93,498.84 87.36,508.40"/>
    </edge>
    <edge id=":42431549_7" function="internal">
        <lane id=":42431549_7_0" index="0" speed="3.82" length="1.58" width="3.50" shape="81.93,498.84 81.82,500.41"/>
    </edge>
    <edge id=":42431549_10" function="internal">
        <lane id=":42431549_10_0" index="0" speed="3.82" length="3.53" width="3.50" shape="81.82,500.41 81.27,501.22 80.30,501.27 78.89,500.56"/>
    </edge>
    <edge id=":42432818_0" function="internal">
        <lane id=":42432818_0_0" index="0" speed="5.27" length="5.46" width="3.50" shape="644.04,307.75 643.41,307.21 642.37,307.15 640.91,307.56 639.04,308.45"/>
    </edge>
    <edge id=":42432818_1" function="internal">
        <lane id=":42432818_1_0" index="0" speed="13.89" length="17.00" width="3.50" shape="644.04,307.75 635.99,292.80"/>
        <lane id=":42432818_1_1" index="1" speed="13.89" length="17.00" width="3.50" shape="647.12,306.10 639.07,291.14"/>
        <lane id=":42432818_1_2" index="2" speed="13.89" length="17.00" width="3.50" shape="650.20,304.44 642.15,289.47"/>
        <lane id=":42432818_1_3" index="3" speed="13.89" length="17.00" width="3.50" shape="653.29,302.79 645.23,287.81"/>
    </edge>
    <edge id=":42432818_5" function="internal">
        <lane id=":42432818_5_0" index="0" speed="6.61" length="9.26" width="3.50" shape="653.29,302.79 651.57,299.37 650.56,296.80 650.27,295.10 650.69,294.25"/>
    </edge>
    <edge id=":42432818_6" function="internal">
        <lane id=":42432818_6_0" index="0" speed="13.89" length="16.99" width="3.50" shape="654.00,300.42 639.04,308.45"/>
        <lane id=":42432818_6_1" index="1" speed="13.89" length="16.99" width="3.50" shape="652.34,297.33 637.37,305.37"/>
    </edge>
    <edge id=":42432818_8" function="internal">
        <lane id=":42432818_8_0" index="0" speed="7.48" length="12.17" width="3.50" shape="652.34,297.33 651.32,297.05 649.80,295.37 647.77,292.29 645.23,287.81"/>
    </edge>
    <edge id=":42432818_9" function="internal">
        <lane id=":42432818_9_0" index="0" speed="3.82" length="5.11" width="3.50" shape="652.34,297.33 650.77,297.18 649.97,296.62 649.95,295.64 650.69,294.25"/>
    </edge>
    <edge id=":42432818_10" function="internal">
        <lane id=":42432818_10_0" index="0" speed="6.07" length="7.63" width="3.50" shape="634.06,299.20 635.74,297.96 636.62,296.48 636.71,294.76 635.99,292.80"/>
        <lane id=":42432818_10_1" index="1" speed="7.79" length="13.28" width="3.50" shape="635.71,302.29 638.64,300.12 640.18,297.54 640.32,294.54 639.07,291.14"/>
    </edge>
    <edge id=":42432818_12" function="internal">
        <lane id=":42432818_12_0" index="0" speed="13.89" length="17.46" width="3.50" shape="635.71,302.29 639.94,299.39 642.37,296.73 644.80,294.06 649.03,291.17"/>
    </edge>
    <edge id=":42432818_13" function="internal">
        <lane id=":42432818_13_0" index="0" speed="3.82" length="5.11" width="3.50" shape="635.71,302.29 637.28,302.44 638.08,303.00 638.11,303.98 637.37,305.37"/>
    </edge>
    <edge id=":42432825_0" function="internal">
        <lane id=":42432825_0_0" index="0" speed="6.05" length="7.58" width="3.50" shape="793.35,225.30 791.68,226.55 790.81,228.03 790.75,229.74 791.48,231.68"/>
        <lane id=":42432825_0_1" index="1" speed="7.77" length="13.24" width="3.50" shape="791.68,222.23 788.77,224.41 787.25,226.99 787.13,229.98 788.41,233.37"/>
    </edge>
    <edge id=":42432825_2" function="internal">
        <lane id=":42432825_2_0" index="0" speed="13.89" length="17.47" width="3.50" shape="791.68,222.23 787.47,225.15 785.04,227.82 782.62,230.49 778.39,233.40"/>
    </edge>
    <edge id=":42432825_3" function="internal">