<?xml version='1.0' encoding='UTF-8'?>
<nodes>
  <node id="10125156111" x="88.694928" y="-32.993243"/>
  <node id="10125156112" x="228.412561" y="-108.705352"/>
  <node id="10125156115" x="381.067101" y="-190.99089"/>
  <node id="11220661302" x="-252.984459" y="192.064224"/>
  <node id="11336810277" x="-343.193942" y="-84.134982"/>
  <node id="3977886253" x="17.551312" y="-288.53445"/>
  <node id="4207892895" x="-278.429141" y="260.335065"/>
  <node id="4207892896" x="-304.830711" y="274.604491"/>
  <node id="4207938835" x="-431.782499" y="-218.071829"/>
  <node id="42427762" x="3.225289" y="12.811372" shape="6.042566,3.321222 10.339957,9.153299 13.540771,15.378633 -0.688565,22.694780 -3.889379,16.469445 -6.264861,9.994095 6.042566,3.321222 6.042566,3.321222"/>
  <node id="42427764" x="-49.611974" y="41.43896" shape="-48.962115,34.257200 -43.232602,44.801045 -47.223936,47.759931 -51.055634,48.908014 -53.277159,49.384331 -58.265782,40.145086 -52.476731,36.167037 -48.962115,34.257200 -48.962115,34.257200"/>
  <node id="42429970" x="192.978472" y="361.072106" shape="197.182350,354.192614 199.111023,357.696928 199.169706,357.805820 200.819440,360.932885 201.036156,361.343669 188.653687,367.876239 184.917249,360.942969 197.182350,354.192614 197.182350,354.192614"/>
  <node id="42429971" x="329.252936" y="287.642031" shape="333.508462,280.794367 335.414218,284.319591 337.312755,287.840323 324.990192,294.485204 321.192913,287.452238 333.508462,280.794367 333.508462,280.794367"/>
  <node id="42429974" x="473.235152" y="210.785636" shape="475.944015,204.766952 477.850484,208.283395 477.875562,208.330215 479.746359,211.865765 470.465539,216.776608 466.713351,209.771433 475.944015,204.766952 475.944015,204.766952"/>
  <node id="42430367" x="-465.174164" y="-200.985477" shape="-460.907083,-207.825946 -459.010691,-204.303851 -457.114478,-200.781867 -469.441423,-194.145119 -473.233856,-201.188878 -460.907083,-207.825946 -460.907083,-207.825946"/>
  <node id="42430371" x="-427.577748" y="-131.114418" shape="-424.728880,-140.595133 -423.540870,-138.391341 -418.097491,-128.264027 -430.428139,-121.634161 -436.120994,-132.120868 -437.058463,-133.963286 -424.728880,-140.595133 -424.728880,-140.595133"/>
  <node id="42430375" x="-388.949119" y="-59.332633" shape="-386.103230,-68.814242 -384.889044,-66.596640 -379.452240,-56.536191 -391.745253,-49.836800 -392.968880,-52.046240 -397.246749,-59.964563 -398.430728,-62.178522 -386.103230,-68.814242 -386.103230,-68.814242"/>
  <node id="42430378" x="-352.241858" y="7.999037" shape="-349.454504,-1.491999 -347.967245,1.163272 -342.747022,10.800482 -355.043303,17.493873 -356.516461,14.834808 -361.747517,5.207392 -349.454504,-1.491999 -349.454504,-1.491999"/>
  <node id="42430384" x="-310.846782" y="83.952819" shape="-309.484457,71.822523 -307.993447,74.473448 -301.367411,86.806154 -299.960819,89.475121 -312.309454,96.071424 -316.319298,94.863895 -322.971942,82.545521 -321.778076,78.520802 -309.484457,71.822523 -309.484457,71.822523"/>
  <node id="42430390" x="-270.302593" y="159.932093" shape="-267.421186,150.461217 -260.819735,162.773818 -273.144318,169.414951 -278.963307,158.685283 -279.773469,157.050686 -267.421186,150.461217 -267.421186,150.461217"/>
  <node id="42430394" x="-230.05662" y="233.961806" shape="-227.459754,224.408990 -226.947145,224.563340 -220.658154,237.071281 -232.633145,243.520128 -239.614942,231.385281 -239.609436,231.364940 -227.459754,224.408990 -227.459754,224.408990"/>
  <node id="42431544" x="-78.270678" y="-139.119279" shape="-75.500226,-148.620135 -73.982530,-145.946561 -68.787884,-136.277340 -81.112617,-129.636485 -87.777191,-141.891381 -75.500226,-148.620135 -75.500226,-148.620135"/>
  <node id="42431549" x="-600.151978" y="141.147339" shape="-596.039988,134.212533 -595.881493,134.308994 -590.608426,143.778044 -602.782683,150.690891 -608.214206,141.125449 -596.039988,134.212533 -596.039988,134.212533"/>
  <node id="42432818" x="-37.181368" y="-62.92141" shape="-35.768635,-75.045938 -34.335246,-72.402949 -27.702408,-60.066710 -40.036068,-53.442450 -42.686380,-52.026694 -49.302280,-64.364841 -48.089989,-68.398816 -35.768635,-75.045938 -35.768635,-75.045938"/>
  <node id="42432825" x="99.514516" y="-136.572929" shape="100.949551,-148.694838 104.970402,-147.492330 111.641806,-135.184106 110.471202,-131.192313 98.209179,-124.436369 96.684125,-127.086682 90.028269,-139.403320 88.615989,-142.070394 100.949551,-148.694838 100.949551,-148.694838"/>
  <node id="42432834" x="243.455583" y="-214.489097" shape="246.303528,-223.970089 252.936575,-211.641152 242.204121,-205.829054 240.603235,-205.009429 233.975915,-217.341445 244.739668,-223.144363 246.303528,-223.970089 246.303528,-223.970089"/>
  <node id="42432847" x="374.13266" y="-284.797885" shape="375.526874,-296.924557 380.288254,-288.130851 380.301723,-288.105855 385.027394,-279.292908 372.689268,-272.676968 368.637728,-273.898081 362.010418,-286.230103 363.215686,-290.258625 375.526874,-296.924557 375.526874,-296.924557"/>
  <node id="42436510" x="116.261792" y="222.360205" shape="120.527770,215.519048 124.323177,222.478842 112.066879,229.245167 110.133643,225.743368 110.098941,225.679733 108.202068,222.158104 120.527770,215.519048 120.527770,215.519048"/>
  <node id="42436511" x="253.906721" y="148.100993" shape="258.085361,141.206142 260.026863,144.703366 260.070496,144.783181 261.966389,148.305338 249.638839,154.940962 245.845078,148.001396 258.085361,141.206142 258.085361,141.206142"/>
  <node id="42436514" x="397.652265" y="70.707406" shape="400.363028,64.689577 402.268387,68.206622 402.275753,68.220267 404.170716,71.742924 394.923741,76.717203 391.130784,69.691144 400.363028,64.689577 400.363028,64.689577"/>
  <node id="42436700" x="-191.303267" y="-349.559573" shape="-186.837636,-356.272109 -185.045313,-352.696133 -183.252993,-349.120160 -195.768901,-342.847039 -199.353541,-349.998983 -186.837636,-356.272109 -186.837636,-356.272109"/>
  <node id="42440015" x="-677.704347" y="4.572108" shape="-673.552010,-5.835610 -670.095498,0.251469 -668.160765,7.202706 -680.334945,14.115690 -685.313196,8.892747 -688.769707,2.805668 -673.552010,-5.835610 -673.552010,-5.835610"/>
  <node id="42440020" x="-637.680514" y="75.05648" shape="-635.049916,65.512898 -633.663098,67.768794 -628.136947,77.687131 -640.311165,84.600047 -647.224096,72.425882 -635.049916,65.512898 -635.049916,65.512898"/>
  <node id="42440022" x="-557.156371" y="216.867168" shape="-551.719172,205.938450 -545.026723,218.235244 -546.131527,222.106711 -558.305827,229.019483 -566.699923,214.236463 -554.525666,207.323616 -551.719172,205.938450 -551.719172,205.938450"/>
  <node id="42440025" x="-513.898074" y="293.050713" shape="-511.267310,283.507177 -510.178368,285.130720 -504.354554,295.681534 -516.528895,302.594233 -523.441610,290.419949 -511.267310,283.507177 -511.267310,283.507177"/>
  <node id="42440951" x="-115.91179" y="-207.782573" shape="-113.150799,-217.289251 -112.104996,-215.496737 -106.406783,-205.015833 -118.678530,-198.277566 -120.029443,-200.551050 -125.418468,-210.543564 -113.150799,-217.289251 -113.150799,-217.289251"/>
  <node id="42443612" x="58.801951" y="-212.422993" shape="61.596150,-221.919964 63.135584,-219.221495 68.280054,-209.565447 55.944405,-202.944890 49.304980,-215.217192 61.596150,-221.919964 61.596150,-221.919964"/>
  <node id="42443613" x="203.05888" y="-289.115017" shape="204.331622,-297.771958 207.242142,-296.007064 211.120454,-289.010015 209.580961,-288.102613 200.351677,-283.095586 198.789168,-282.276190 194.999267,-289.321519 195.104584,-292.760793 204.331622,-297.771958 204.331622,-297.771958"/>
  <node id="42443614" x="333.58067" y="-360.50328" shape="331.662827,-364.013533 339.753582,-363.804060 343.054363,-357.631148 330.708538,-351.029587 325.519884,-360.657308 331.662827,-364.013533 331.662827,-364.013533"/>
  <node id="42445936" x="-16.248144" y="-351.468927" shape="-13.127635,-360.863735 -6.774467,-348.596742 -19.120329,-341.995250 -24.779573,-352.571068 -25.642952,-354.589436 -13.127635,-360.863735 -13.127635,-360.863735"/>
  <node id="42445941" x="21.44348" y="-281.36125" shape="24.257707,-290.852305 25.627235,-288.877645 30.805956,-278.145035 18.227265,-271.998774 11.952425,-284.175477 24.257707,-290.852305 24.257707,-290.852305"/>
  <node id="42445947" x="140.710058" y="-60.950097" shape="143.791294,-70.357859 149.741398,-59.096750 150.078635,-57.751698 137.511659,-51.581520 131.713860,-62.967128 131.302296,-64.031333 143.791294,-70.357859 143.791294,-70.357859"/>
  <node id="42445950" x="177.417639" y="7.870193" shape="180.451769,-1.732960 181.017980,-0.689001 185.990561,8.580828 186.856231,10.855655 174.432177,17.308785 168.706483,7.046631 168.145303,4.941684 180.451769,-1.732960 180.451769,-1.732960"/>
  <node id="42445953" x="216.217719" y="80.312374" shape="220.237849,73.323915 222.258692,76.775900 222.330497,76.901516 224.279558,80.394532 212.054003,87.216247 208.155904,80.396864 220.237849,73.323915 220.237849,73.323915"/>
  <node id="42445961" x="291.445608" y="217.830969" shape="295.709023,210.988214 299.505836,218.011868 287.197641,224.683325 285.291511,221.166698 285.284001,221.152805 283.385809,217.631887 295.709023,210.988214 295.709023,210.988214"/>
  <node id="42447007" x="414.993097" y="-208.833258" shape="417.765519,-218.336609 421.130983,-212.198722 421.168376,-212.129610 424.464727,-205.954331 412.114170,-199.361628 411.338627,-200.368930 405.489746,-211.605680 417.765519,-218.336609 417.765519,-218.336609"/>
  <node id="42447009" x="452.216914" y="-139.550311" shape="455.491783,-148.892433 461.699129,-136.706440 449.373043,-130.068096 448.092296,-132.001302 443.738246,-141.003649 442.874792,-142.825180 455.491783,-148.892433 455.491783,-148.892433"/>
  <node id="42447020" x="490.920683" y="-67.685108" shape="495.187056,-74.526019 497.083726,-71.004280 497.163899,-70.850902 498.972924,-67.283350 486.486492,-60.951762 482.860970,-67.887675 495.187056,-74.526019 495.187056,-74.526019"/>
  <node id="42448317" x="321.7034" y="-70.084787" shape="322.956966,-78.698313 325.472968,-77.817209 330.240416,-69.026792 329.700642,-66.534206 320.534069,-61.413272 318.011776,-62.314851 313.156177,-71.056884 313.702548,-73.737894 322.956966,-78.698313 322.956966,-78.698313"/>
  <node id="42450426" x="-153.374839" y="-278.020092" shape="-150.467025,-287.509701 -150.421280,-287.424071 -144.843928,-276.913945 -144.036337,-275.075989 -156.383557,-268.477038 -156.582604,-268.849473 -161.684661,-278.463771 -162.815377,-280.912868 -150.467025,-287.509701 -150.467025,-287.509701"/>
  <node id="42456598" x="284.619378" y="-139.121172" shape="285.865003,-147.782056 287.941873,-147.721232 293.626407,-137.153068 292.548862,-135.429269 283.294445,-130.468850 281.338084,-130.505308 275.603032,-141.046143 276.653704,-142.742019 285.865003,-147.782056 285.865003,-147.782056"/>
  <node id="42456683" x="154.728149" y="291.53412" shape="158.870123,284.617181 160.830165,288.104047 160.868591,288.173321 162.789048,291.682145 150.508163,298.403743 146.666091,291.477327 158.870123,284.617181 158.870123,284.617181"/>
  <node id="42459114" x="435.287215" y="140.805633" shape="438.030889,134.802737 441.810129,141.812657 432.584978,146.827295 430.674640,143.312952 430.657469,143.281103 428.771397,139.753677 438.030889,134.802737 438.030889,134.802737"/>
  <node id="4347534767" x="-12.66726" y="114.624254" shape="-12.877809,108.027424 -6.251160,116.172209 -5.797453,118.602154 -12.124534,123.348393 -13.941450,124.684889 -22.237046,113.407340 -17.199536,109.289605 -12.877809,108.027424 -12.877809,108.027424"/>
  <node id="4347534768" x="40.092689" y="175.082906"/>
  <node id="4347534783" x="79.972762" y="154.610901" shape="84.197289,147.744070 86.115425,151.254163 86.149730,151.317717 88.031550,154.847413 75.677613,161.433781 71.911963,154.457546 84.197289,147.744070 84.197289,147.744070"/>
  <node id="4796245038" x="-351.084142" y="299.600595"/>
  <node id="4960527241" x="52.562495" y="-223.875863"/>
  <node id="5475605297" x="431.13081" y="-179.144766"/>
  <node id="5706568771" x="40.887412" y="82.665714" shape="44.765719,72.768304 47.988887,78.982094 50.398033,85.413092 38.140034,92.176335 33.785937,86.349334 30.562770,80.135544 44.765719,72.768304 44.765719,72.768304"/>
  <node id="596775907" x="151.093209" y="-350.542424" shape="148.724802,-354.945905 155.710200,-353.041602 158.893222,-347.161274 159.045559,-346.878897 149.804547,-341.893549 147.296742,-342.823173 142.559928,-351.630136 148.724802,-354.945905 148.724802,-354.945905"/>
  <node id="596775930" x="382.131065" y="79.107077" shape="384.865897,73.100148 388.649791,80.140862 379.404138,85.117599 377.504969,81.589361 375.613705,78.064716 384.865897,73.100148 384.865897,73.100148"/>
  <node id="596775935" x="228.393419" y="-206.394575" shape="231.245767,-215.874243 237.873087,-203.542227 225.569953,-196.906264 218.905108,-209.218041 220.465448,-210.097246 231.245767,-215.874243 231.245767,-215.874243"/>
  <node id="596775941" x="269.258772" y="-130.763782" shape="270.521345,-139.422212 272.540066,-139.379646 278.275118,-128.838811 277.079575,-127.045017 267.850488,-122.037626 266.010330,-122.135478 260.235157,-132.654384 261.300200,-134.400212 270.521345,-139.422212 270.521345,-139.422212"/>
  <node id="596775946" x="306.493775" y="-61.636885" shape="307.848435,-70.335142 310.185399,-69.406821 315.040998,-60.664788 314.408933,-57.906901 305.129235,-52.993938 302.702851,-53.914910 297.959715,-62.718470 298.619348,-65.327752 307.848435,-70.335142 307.848435,-70.335142"/>
  <node id="596775951" x="188.455272" y="-281.259285" shape="189.778490,-289.908655 192.724984,-288.098112 196.514885,-281.052783 194.970521,-280.203809 185.708355,-275.257873 184.162779,-274.434734 180.396393,-281.492661 180.522378,-284.951398 189.778490,-289.908655 189.778490,-289.908655"/>
  <node id="596775985" x="419.758848" y="149.105219" shape="422.493836,143.098361 426.283647,150.099955 417.067958,155.131960 415.151004,151.621222 415.132687,151.587383 413.241515,148.062689 422.493836,143.098361 422.493836,143.098361"/>
  <node id="596775998" x="457.775449" y="218.99713" shape="460.479948,212.976483 462.388966,216.491544 462.394045,216.500919 464.295920,220.019849 455.058728,225.012272 451.252914,217.987656 460.479948,212.976483 460.479948,212.976483"/>
  <node id="6177439750" x="360.756264" y="2.439954" shape="363.448779,-3.586061 365.364787,-0.074806 365.429352,0.047309 367.252319,3.607757 357.906144,8.393047 354.231734,1.443458 363.448779,-3.586061 363.448779,-3.586061"/>
  <node id="6177439752" x="345.401764" y="10.712262" shape="348.114614,4.695374 350.018753,8.213080 350.031403,8.236591 351.917628,11.763935 342.658350,16.715276 338.880636,9.693738 348.114614,4.695374 348.114614,4.695374"/>
  <node id="7248586387" x="115.220721" y="-242.193683" shape="116.869829,-247.604824 120.631862,-240.544575 118.832054,-239.555829 113.570240,-236.782961 109.809999,-243.844164 116.869829,-247.604824 116.869829,-247.604824"/>
  <node id="8254176965" x="121.517781" y="131.105482"/>
  <node id="8904527314" x="61.724178" y="120.590777"/>
  <node id="8914958309" x="134.079197" y="-252.242367" shape="135.729242,-257.653222 139.490052,-250.592322 137.662471,-249.566522 132.430089,-246.831226 128.668056,-253.891475 132.198792,-255.772817 135.729242,-257.653222 135.729242,-257.653222"/>
  <node id="8918680640" x="201.608393" y="54.161693"/>
  <node id="9140929842" x="-119.35876" y="-214.051214"/>
  <node id="9433097821" x="13.838328" y="159.376782"/>
  <node id="9960054857" x="33.786478" y="-101.115703"/>
  <node id="Custom78" x="-682.536623" y="-3.937758"/>
  <node id="Custom79" x="-193.87200199999998" y="-354.68461499999995"/>
  <node id="Custom80" x="-19.968028999999998" y="-358.888965"/>
  <node id="Custom81" x="196.626296" y="367.98654300000004"/>
  <node id="Custom82" x="494.37474100000003" y="-60.873411999999995"/>
  <node id="Custom83" x="165.612501" y="-358.39922"/>
  <node id="Custom84" x="-272.93814499999996" y="403.995896"/>
  <node id="Custom85" x="484.126027" y="204.907415"/>
  <node id="Custom86" x="514.2483560000001" y="287.063635"/>
  <node id="Custom87" x="498.931197" y="295.365537"/>
  <node id="Custom88" x="406.504434" y="65.926439"/>
  <node id="Custom89" x="-468.248054" y="-206.694494"/>
  <node id="Custom90" x="332.747445" y="294.12240499999996"/>
  <node id="Custom91" x="444.40227899999996" y="135.916782"/>
</nodes>
