<?xml version="1.0" encoding="UTF-8"?>

<net version="1.9" junctionCornerDetail="5" limitTurnSpeed="5.50" xmlns:xsi="http://www.w3.org/2001/XMLSchema-instance" xsi:noNamespaceSchemaLocation="http://sumo.dlr.de/xsd/net_file.xsd">

    <location netOffset="456.49,632.92" convBoundary="0.00,0.00,1511.79,1461.89" origBoundary="-456.49,-632.92,1060.77,829.88" projParameter="!"/>

    <edge id=":10782118915_0" function="internal">
        <lane id=":10782118915_0_0" index="0" speed="13.89" length="8.00" width="4.00" shape="200.48,1209.10 208.48,1209.01"/>
    </edge>
    <edge id=":10782118915_1" function="internal">
        <lane id=":10782118915_1_0" index="0" speed="5.69" length="6.43" width="4.00" shape="200.48,1209.10 202.23,1209.33 203.48,1210.07 204.23,1211.31 204.49,1213.05"/>
    </edge>
    <edge id=":10782118916_0" function="internal">
        <lane id=":10782118916_0_0" index="0" speed="13.89" length="7.99" width="4.00" shape="287.41,1212.21 287.30,1204.22"/>
    </edge>
    <edge id=":10782118916_1" function="internal">
        <lane id=":10782118916_1_0" index="0" speed="6.29" length="2.75" width="4.00" shape="287.41,1212.21 287.76,1210.45 288.38,1209.74"/>
    </edge>
    <edge id=":10782118916_2" function="internal">
        <lane id=":10782118916_2_0" index="0" speed="4.08" length="2.00" width="4.00" shape="287.41,1212.21 288.39,1210.70 288.56,1210.61"/>
    </edge>
    <edge id=":10782118916_9" function="internal">
        <lane id=":10782118916_9_0" index="0" speed="6.29" length="5.39" width="4.00" shape="288.38,1209.74 288.86,1209.19 290.73,1208.42 293.36,1208.14"/>
    </edge>
    <edge id=":10782118916_10" function="internal">
        <lane id=":10782118916_10_0" index="0" speed="4.08" length="3.85" width="4.00" shape="288.56,1210.61 289.38,1210.18 290.39,1210.66 291.41,1212.15"/>
    </edge>
    <edge id=":10782118916_3" function="internal">
        <lane id=":10782118916_3_0" index="0" speed="5.14" length="4.95" width="4.00" shape="291.30,1204.16 291.45,1205.91 291.84,1207.16 292.48,1207.90 293.36,1208.14"/>
    </edge>
    <edge id=":10782118916_4" function="internal">
        <lane id=":10782118916_4_0" index="0" speed="13.89" length="7.99" width="4.00" shape="291.30,1204.16 291.41,1212.15"/>
    </edge>
    <edge id=":10782118916_5" function="internal">
        <lane id=":10782118916_5_0" index="0" speed="4.08" length="1.99" width="4.00" shape="291.30,1204.16 290.32,1205.68 290.15,1205.76"/>
    </edge>
    <edge id=":10782118916_11" function="internal">
        <lane id=":10782118916_11_0" index="0" speed="4.08" length="3.85" width="4.00" shape="290.15,1205.76 289.33,1206.19 288.32,1205.70 287.30,1204.22"/>
    </edge>
    <edge id=":10782118916_6" function="internal">
        <lane id=":10782118916_6_0" index="0" speed="5.12" length="4.94" width="4.00" shape="285.35,1208.23 286.23,1207.97 286.84,1207.22 287.20,1205.97 287.30,1204.22"/>
    </edge>
    <edge id=":10782118916_7" function="internal">
        <lane id=":10782118916_7_0" index="0" speed="13.89" length="8.01" width="4.00" shape="285.35,1208.23 293.36,1208.14"/>
    </edge>
    <edge id=":10782118916_8" function="internal">
        <lane id=":10782118916_8_0" index="0" speed="6.31" length="8.12" width="4.00" shape="285.35,1208.23 287.98,1208.45 289.86,1209.18 291.01,1210.41 291.41,1212.15"/>
    </edge>
    <edge id=":10782118917_0" function="internal">
        <lane id=":10782118917_0_0" index="0" speed="13.89" length="8.00" width="4.00" shape="347.65,1211.59 347.55,1203.59"/>
    </edge>
    <edge id=":10782118917_1" function="internal">
        <lane id=":10782118917_1_0" index="0" speed="5.71" length="6.45" width="4.00" shape="347.65,1211.59 347.88,1209.84 348.61,1208.58 349.85,1207.82 351.60,1207.55"/>
    </edge>
    <edge id=":10782118917_2" function="internal">
        <lane id=":10782118917_2_0" index="0" speed="5.71" length="6.45" width="4.00" shape="343.60,1207.64 345.35,1207.37 346.59,1206.61 347.32,1205.35 347.55,1203.59"/>
    </edge>
    <edge id=":10782118917_3" function="internal">
        <lane id=":10782118917_3_0" index="0" speed="13.89" length="8.00" width="4.00" shape="343.60,1207.64 351.60,1207.55"/>
    </edge>
    <edge id=":10782118919_0" function="internal">
        <lane id=":10782118919_0_0" index="0" speed="4.92" length="4.76" width="4.00" shape="52.42,1206.81 52.43,1208.47 52.73,1209.66 53.33,1210.37 54.24,1210.60"/>
    </edge>
    <edge id=":10782118919_1" function="internal">
        <lane id=":10782118919_1_0" index="0" speed="13.89" length="8.00" width="4.00" shape="52.42,1206.81 51.79,1214.78"/>
    </edge>
    <edge id=":10782118919_2" function="internal">
        <lane id=":10782118919_2_0" index="0" speed="4.08" length="1.99" width="4.00" shape="52.42,1206.81 51.31,1208.22 51.13,1208.30"/>
    </edge>
    <edge id=":10782118919_9" function="internal">
        <lane id=":10782118919_9_0" index="0" speed="4.08" length="3.85" width="4.00" shape="51.13,1208.30 50.27,1208.64 49.32,1208.07 48.44,1206.50"/>
    </edge>
    <edge id=":10782118919_3" function="internal">
        <lane id=":10782118919_3_0" index="0" speed="4.79" length="4.62" width="4.00" shape="46.02,1209.69 46.97,1209.67 47.69,1209.14 48.18,1208.08 48.44,1206.50"/>
    </edge>
    <edge id=":10782118919_4" function="internal">
        <lane id=":10782118919_4_0" index="0" speed="13.89" length="8.30" width="4.00" shape="46.02,1209.69 48.42,1210.23 50.09,1210.51 51.78,1210.61 54.24,1210.60"/>
    </edge>
    <edge id=":10782118919_5" function="internal">
        <lane id=":10782118919_5_0" index="0" speed="6.74" length="8.41" width="4.00" shape="46.02,1209.69 48.65,1210.53 50.49,1211.66 51.54,1213.08 51.79,1214.78"/>
    </edge>
    <edge id=":10782118919_6" function="internal">
        <lane id=":10782118919_6_0" index="0" speed="13.89" length="8.00" width="4.00" shape="47.81,1214.47 48.44,1206.50"/>
    </edge>
    <edge id=":10782118919_7" function="internal">
        <lane id=":10782118919_7_0" index="0" speed="6.55" length="2.71" width="4.00" shape="47.81,1214.47 48.32,1212.80 49.01,1212.13"/>
    </edge>
    <edge id=":10782118919_8" function="internal">
        <lane id=":10782118919_8_0" index="0" speed="4.08" length="1.99" width="4.00" shape="47.81,1214.47 48.92,1213.05 49.10,1212.98"/>
    </edge>
    <edge id=":10782118919_10" function="internal">
        <lane id=":10782118919_10_0" index="0" speed="6.55" length="5.59" width="4.00" shape="49.01,1212.13 49.56,1211.60 51.53,1210.87 54.24,1210.60"/>
    </edge>
    <edge id=":10782118919_11" function="internal">
        <lane id=":10782118919_11_0" index="0" speed="4.08" length="3.85" width="4.00" shape="49.10,1212.98 49.96,1212.63 50.92,1213.21 51.79,1214.78"/>
    </edge>
    <edge id=":11425730083_0" function="internal">
        <lane id=":11425730083_0_0" index="0" speed="13.89" length="8.00" width="4.00" shape="1153.65,1222.51 1145.65,1222.42"/>
    </edge>
    <edge id=":11425730083_1" function="internal">
        <lane id=":11425730083_1_0" index="0" speed="6.30" length="2.74" width="4.00" shape="1153.65,1222.51 1151.90,1222.12 1151.20,1221.47"/>
    </edge>
    <edge id=":11425730083_2" function="internal">
        <lane id=":11425730083_2_0" index="0" speed="4.08" length="1.99" width="4.00" shape="1153.65,1222.51 1152.16,1221.49 1152.08,1221.32"/>
    </edge>
    <edge id=":11425730083_6" function="internal">
        <lane id=":11425730083_6_0" index="0" speed="6.30" length="5.40" width="4.00" shape="1151.20,1221.47 1150.66,1220.98 1149.93,1219.09 1149.71,1216.46"/>
    </edge>
    <edge id=":11425730083_7" function="internal">
        <lane id=":11425730083_7_0" index="0" speed="4.08" length="3.85" width="4.00" shape="1152.08,1221.32 1151.67,1220.49 1152.18,1219.49 1153.69,1218.51"/>
    </edge>
    <edge id=":11425730083_3" function="internal">
        <lane id=":11425730083_3_0" index="0" speed="5.12" length="4.94" width="4.00" shape="1145.70,1218.42 1147.45,1218.32 1148.70,1217.95 1149.45,1217.34 1149.71,1216.46"/>
    </edge>
    <edge id=":11425730083_4" function="internal">
        <lane id=":11425730083_4_0" index="0" speed="13.89" length="7.99" width="4.00" shape="1145.70,1218.42 1153.69,1218.51"/>
    </edge>
    <edge id=":11425730083_5" function="internal">
        <lane id=":11425730083_5_0" index="0" speed="4.08" length="1.99" width="4.00" shape="1145.70,1218.42 1147.19,1219.44 1147.27,1219.61"/>
    </edge>
    <edge id=":11425730083_8" function="internal">
        <lane id=":11425730083_8_0" index="0" speed="4.08" length="3.85" width="4.00" shape="1147.27,1219.61 1147.67,1220.44 1147.16,1221.44 1145.65,1222.42"/>
    </edge>
    <edge id=":11425730084_0" function="internal">
        <lane id=":11425730084_0_0" index="0" speed="13.89" length="8.00" width="4.00" shape="1146.16,1170.13 1154.16,1170.30"/>
    </edge>
    <edge id=":11425730084_1" function="internal">
        <lane id=":11425730084_1_0" index="0" speed="5.68" length="1.90" width="4.00" shape="1150.13,1174.22 1150.40,1172.48 1150.47,1172.36"/>
    </edge>
    <edge id=":11425730084_2" function="internal">
        <lane id=":11425730084_2_0" index="0" speed="5.68" length="4.52" width="4.00" shape="1150.47,1172.36 1151.16,1171.24 1152.41,1170.52 1154.16,1170.30"/>
    </edge>
    <edge id=":1433738491_0" function="internal">
        <lane id=":1433738491_0_0" index="0" speed="5.56" length="9.09" width="4.00" shape="1276.86,1030.08 1278.33,1027.68 1278.39,1025.95 1277.02,1024.89 1274.24,1024.49"/>
    </edge>
    <edge id=":1433738491_1" function="internal">
        <lane id=":1433738491_1_0" index="0" speed="9.82" length="21.13" width="4.00" shape="1276.86,1030.08 1294.71,1041.38"/>
    </edge>
    <edge id=":1433738491_2" function="internal">
        <lane id=":1433738491_2_0" index="0" speed="13.89" length="11.00" width="4.00" shape="1276.86,1030.08 1283.74,1021.50"/>
    </edge>
    <edge id=":1433738503_0" function="internal">
        <lane id=":1433738503_0_0" index="0" speed="9.66" length="10.29" width="4.00" shape="1196.00,1122.26 1199.22,1122.10 1201.88,1121.54 1203.98,1120.58 1205.51,1119.22"/>
    </edge>
    <edge id=":1433738503_1" function="internal">
        <lane id=":1433738503_1_0" index="0" speed="12.65" length="10.79" width="4.00" shape="1196.00,1122.26 1199.15,1122.25 1201.48,1122.40 1203.62,1123.11 1206.17,1124.79"/>
    </edge>
    <edge id=":1433738503_2" function="internal">
        <lane id=":1433738503_2_0" index="0" speed="13.89" length="11.00" width="4.00" shape="1198.68,1127.84 1205.51,1119.22"/>
    </edge>
    <edge id=":1433738503_3" function="internal">
        <lane id=":1433738503_3_0" index="0" speed="6.61" length="4.14" width="4.00" shape="1198.68,1127.84 1200.77,1125.59 1201.66,1125.00"/>
    </edge>
    <edge id=":1433738503_4" function="internal">
        <lane id=":1433738503_4_0" index="0" speed="6.61" length="4.89" width="4.00" shape="1201.66,1125.00 1202.71,1124.32 1204.51,1124.06 1206.17,1124.79"/>
    </edge>
    <edge id=":180234309_0" function="internal">
        <lane id=":180234309_0_0" index="0" speed="5.54" length="5.35" width="4.00" shape="805.44,606.79 805.32,604.90 804.95,603.51 804.34,602.62 803.48,602.23"/>
    </edge>
    <edge id=":180234309_1" function="internal">
        <lane id=":180234309_1_0" index="0" speed="4.08" length="2.08" width="4.00" shape="805.44,606.79 806.44,605.29 806.69,605.16"/>
    </edge>
    <edge id=":180234309_4" function="internal">
        <lane id=":180234309_4_0" index="0" speed="4.08" length="3.76" width="4.00" shape="806.69,605.16 807.44,604.79 808.44,605.29 809.44,606.79"/>
    </edge>
    <edge id=":180234309_2" function="internal">
        <lane id=":180234309_2_0" index="0" speed="4.52" length="4.30" width="4.00" shape="811.67,604.01 810.70,603.94 810.00,604.38 809.58,605.33 809.44,606.79"/>
    </edge>
    <edge id=":180234309_3" function="internal">
        <lane id=":180234309_3_0" index="0" speed="13.89" length="8.39" width="4.00" shape="811.67,604.01 809.28,603.32 807.62,602.90 805.95,602.59 803.48,602.23"/>
    </edge>
    <edge id=":180234316_0" function="internal">
        <lane id=":180234316_0_0" index="0" speed="4.69" length="4.51" width="4.00" shape="911.25,630.66 910.29,630.69 909.61,631.23 909.19,632.27 909.04,633.82"/>
    </edge>
    <edge id=":180234316_1" function="internal">
        <lane id=":180234316_1_0" index="0" speed="13.89" length="8.27" width="4.00" shape="911.25,630.66 903.12,629.16"/>
    </edge>
    <edge id=":180234316_2" function="internal">
        <lane id=":180234316_2_0" index="0" speed="5.59" length="5.40" width="4.00" shape="905.04,633.79 904.93,631.89 904.58,630.48 903.97,629.57 903.12,629.16"/>
    </edge>
    <edge id=":180234316_3" function="internal">
        <lane id=":180234316_3_0" index="0" speed="4.08" length="2.08" width="4.00" shape="905.04,633.79 906.05,632.30 906.30,632.18"/>
    </edge>
    <edge id=":180234316_4" function="internal">
        <lane id=":180234316_4_0" index="0" speed="4.08" length="3.76" width="4.00" shape="906.30,632.18 907.06,631.81 908.05,632.32 909.04,633.82"/>
    </edge>
    <edge id=":180234326_0" function="internal">
        <lane id=":180234326_0_0" index="0" speed="5.34" length="5.17" width="4.00" shape="1002.71,645.30 1002.58,643.48 1002.20,642.15 1001.57,641.33 1000.69,641.02"/>
    </edge>
    <edge id=":180234326_1" function="internal">
        <lane id=":180234326_1_0" index="0" speed="4.08" length="2.06" width="4.00" shape="1002.71,645.30 1003.70,643.79 1003.94,643.68"/>
    </edge>
    <edge id=":180234326_4" function="internal">
        <lane id=":180234326_4_0" index="0" speed="4.08" length="3.78" width="4.00" shape="1003.94,643.68 1004.70,643.29 1005.70,643.78 1006.71,645.28"/>
    </edge>
    <edge id=":180234326_2" function="internal">
        <lane id=":180234326_2_0" index="0" speed="5.10" length="4.92" width="4.00" shape="1008.70,641.31 1007.82,641.55 1007.20,642.30 1006.83,643.54 1006.71,645.28"/>
    </edge>
    <edge id=":180234326_3" function="internal">
        <lane id=":180234326_3_0" index="0" speed="13.89" length="8.01" width="4.00" shape="1008.70,641.31 1000.69,641.02"/>
    </edge>
    <edge id=":180234328_0" function="internal">
        <lane id=":180234328_0_0" index="0" speed="6.30" length="8.12" width="4.00" shape="1109.90,645.86 1109.53,644.12 1108.41,642.86 1106.54,642.10 1103.92,641.84"/>
    </edge>
    <edge id=":180237105_0" function="internal">
        <lane id=":180237105_0_0" index="0" speed="13.89" length="8.23" width="4.00" shape="53.44,1220.67 51.00,1220.68 49.33,1220.61 47.67,1220.40 45.26,1219.99"/>
    </edge>
    <edge id=":180237105_1" function="internal">
        <lane id=":180237105_1_0" index="0" speed="6.14" length="8.17" width="4.00" shape="53.44,1220.67 50.79,1220.43 48.93,1219.67 47.89,1218.38 47.65,1216.56"/>
    </edge>
    <edge id=":180237105_2" function="internal">
        <lane id=":180237105_2_0" index="0" speed="6.12" length="1.47" width="4.00" shape="51.63,1216.87 51.22,1218.29"/>
    </edge>
    <edge id=":180237105_3" function="internal">
        <lane id=":180237105_3_0" index="0" speed="4.08" length="1.35" width="4.00" shape="51.63,1216.87 50.80,1217.93"/>
    </edge>
    <edge id=":180237105_4" function="internal">
        <lane id=":180237105_4_0" index="0" speed="6.12" length="6.70" width="4.00" shape="51.22,1218.29 51.11,1218.63 49.88,1219.74 47.93,1220.19 45.26,1219.99"/>
    </edge>
    <edge id=":180237105_5" function="internal">
        <lane id=":180237105_5_0" index="0" speed="4.08" length="4.49" width="4.00" shape="50.80,1217.93 50.52,1218.29 49.48,1218.71 48.52,1218.13 47.65,1216.56"/>
    </edge>
    <edge id=":180238359_0" function="internal">
        <lane id=":180238359_0_0" index="0" speed="6.15" length="4.96" width="4.00" shape="66.00,1130.65 64.81,1131.16 63.89,1131.91 63.25,1132.91 62.87,1134.15"/>
    </edge>
    <edge id=":180238359_1" function="internal">
        <lane id=":180238359_1_0" index="0" speed="10.98" length="8.76" width="4.00" shape="66.00,1130.65 63.58,1131.02 61.89,1130.55 60.24,1129.55 57.90,1128.34"/>
    </edge>
    <edge id=":180238359_2" function="internal">
        <lane id=":180238359_2_0" index="0" speed="4.08" length="1.80" width="4.00" shape="66.00,1130.65 64.28,1130.11"/>
    </edge>
    <edge id=":180238359_6" function="internal">
        <lane id=":180238359_6_0" index="0" speed="4.08" length="4.04" width="4.00" shape="64.28,1130.11 63.51,1129.30 63.71,1128.20 64.86,1126.81"/>
    </edge>
    <edge id=":180238359_3" function="internal">
        <lane id=":180238359_3_0" index="0" speed="5.79" length="5.56" width="4.00" shape="58.93,1133.45 59.16,1131.49 59.06,1129.99 58.64,1128.94 57.90,1128.34"/>
    </edge>
    <edge id=":180238359_4" function="internal">
        <lane id=":180238359_4_0" index="0" speed="8.17" length="9.41" width="4.00" shape="58.93,1133.45 59.64,1131.10 60.87,1129.21 62.61,1127.78 64.86,1126.81"/>
    </edge>
    <edge id=":180238359_5" function="internal">
        <lane id=":180238359_5_0" index="0" speed="4.08" length="2.10" width="4.00" shape="58.93,1133.45 60.18,1132.15 60.47,1132.06"/>
    </edge>
    <edge id=":180238359_7" function="internal">
        <lane id=":180238359_7_0" index="0" speed="4.08" length="3.74" width="4.00" shape="60.47,1132.06 61.25,1131.83 62.15,1132.50 62.87,1134.15"/>
    </edge>
    <edge id=":180251829_0" function="internal">
        <lane id=":180251829_0_0" index="0" speed="6.35" length="8.17" width="4.00" shape="1102.86,1226.94 1102.53,1224.73 1101.57,1223.15 1099.99,1222.18 1097.79,1221.84"/>
    </edge>
    <edge id=":180251829_1" function="internal">
        <lane id=":180251829_1_0" index="0" speed="13.89" length="14.03" width="4.00" shape="1102.86,1226.94 1102.84,1212.91"/>
    </edge>
    <edge id=":180251829_2" function="internal">
        <lane id=":180251829_2_0" index="0" speed="7.89" length="4.94" width="4.00" shape="1102.86,1226.94 1103.65,1223.76 1104.63,1222.41"/>
    </edge>
    <edge id=":180251829_3" function="internal">
        <lane id=":180251829_3_0" index="0" speed="4.08" length="2.00" width="4.00" shape="1102.86,1226.94 1103.85,1225.43 1104.02,1225.34"/>
    </edge>
    <edge id=":180251829_16" function="internal">
        <lane id=":180251829_16_0" index="0" speed="7.89" length="8.74" width="4.00" shape="1104.63,1222.41 1105.75,1220.88 1108.64,1218.80 1111.83,1218.01"/>
    </edge>
    <edge id=":180251829_17" function="internal">
        <lane id=":180251829_17_0" index="0" speed="4.08" length="3.84" width="4.00" shape="1104.02,1225.34 1104.84,1224.93 1105.85,1225.42 1106.86,1226.91"/>
    </edge>
    <edge id=":180251829_4" function="internal">
        <lane id=":180251829_4_0" index="0" speed="6.20" length="7.95" width="4.00" shape="1111.78,1222.01 1109.61,1222.30 1108.07,1223.21 1107.15,1224.75 1106.86,1226.91"/>
    </edge>
    <edge id=":180251829_5" function="internal">
        <lane id=":180251829_5_0" index="0" speed="13.89" length="14.00" width="4.00" shape="1111.78,1222.01 1097.79,1221.84"/>
    </edge>
    <edge id=":180251829_6" function="internal">
        <lane id=":180251829_6_0" index="0" speed="7.94" length="4.98" width="4.00" shape="1111.78,1222.01 1108.58,1221.17 1107.24,1220.18"/>
    </edge>
    <edge id=":180251829_7" function="internal">
        <lane id=":180251829_7_0" index="0" speed="4.08" length="1.99" width="4.00" shape="1111.78,1222.01 1110.29,1220.99 1110.21,1220.82"/>
    </edge>
    <edge id=":180251829_18" function="internal">
        <lane id=":180251829_18_0" index="0" speed="7.94" length="8.81" width="4.00" shape="1107.24,1220.18 1105.69,1219.04 1103.61,1216.12 1102.84,1212.91"/>
    </edge>
    <edge id=":180251829_19" function="internal">
        <lane id=":180251829_19_0" index="0" speed="4.08" length="3.85" width="4.00" shape="1110.21,1220.82 1109.81,1219.99 1110.32,1218.99 1111.83,1218.01"/>
    </edge>
    <edge id=":180251829_8" function="internal">
        <lane id=":180251829_8_0" index="0" speed="6.27" length="8.11" width="4.00" shape="1106.84,1212.96 1107.12,1215.16 1108.04,1216.73 1109.61,1217.68 1111.83,1218.01"/>
    </edge>
    <edge id=":180251829_9" function="internal">
        <lane id=":180251829_9_0" index="0" speed="13.89" length="13.94" width="4.00" shape="1106.84,1212.96 1106.86,1226.91"/>
    </edge>
    <edge id=":180251829_10" function="internal">
        <lane id=":180251829_10_0" index="0" speed="7.95" length="4.76" width="4.00" shape="1106.84,1212.96 1105.99,1216.14 1105.11,1217.33"/>
    </edge>
    <edge id=":180251829_11" function="internal">
        <lane id=":180251829_11_0" index="0" speed="4.08" length="1.98" width="4.00" shape="1106.84,1212.96 1105.82,1214.45 1105.66,1214.53"/>
    </edge>
    <edge id=":180251829_20" function="internal">
        <lane id=":180251829_20_0" index="0" speed="7.95" length="8.92" width="4.00" shape="1105.11,1217.33 1103.87,1219.01 1100.97,1221.07 1097.79,1221.84"/>
    </edge>
    <edge id=":180251829_21" function="internal">
        <lane id=":180251829_21_0" index="0" speed="4.08" length="3.86" width="4.00" shape="1105.66,1214.53 1104.81,1214.94 1103.82,1214.43 1102.84,1212.91"/>
    </edge>
    <edge id=":180251829_12" function="internal">
        <lane id=":180251829_12_0" index="0" speed="6.27" length="8.00" width="4.00" shape="1097.83,1217.84 1099.99,1217.55 1101.55,1216.64 1102.49,1215.09 1102.84,1212.91"/>
    </edge>
    <edge id=":180251829_13" function="internal">
        <lane id=":180251829_13_0" index="0" speed="13.89" length="13.99" width="4.00" shape="1097.83,1217.84 1111.83,1218.01"/>
    </edge>
    <edge id=":180251829_14" function="internal">
        <lane id=":180251829_14_0" index="0" speed="8.02" length="4.92" width="4.00" shape="1097.83,1217.84 1101.04,1218.68 1102.33,1219.63"/>
    </edge>
    <edge id=":180251829_15" function="internal">
        <lane id=":180251829_15_0" index="0" speed="4.08" length="1.99" width="4.00" shape="1097.83,1217.84 1099.32,1218.86 1099.40,1219.03"/>
    </edge>
    <edge id=":180251829_22" function="internal">
        <lane id=":180251829_22_0" index="0" speed="8.02" length="8.88" width="4.00" shape="1102.33,1219.63 1103.93,1220.79 1106.04,1223.70 1106.86,1226.91"/>
    </edge>
    <edge id=":180251829_23" function="internal">
        <lane id=":180251829_23_0" index="0" speed="4.08" length="3.85" width="4.00" shape="1099.40,1219.03 1099.81,1219.86 1099.30,1220.86 1097.79,1221.84"/>
    </edge>
    <edge id=":180251830_0" function="internal">
        <lane id=":180251830_0_0" index="0" speed="5.15" length="4.97" width="4.00" shape="1107.29,1117.16 1107.41,1118.92 1107.78,1120.18 1108.41,1120.94 1109.28,1121.20"/>
    </edge>
    <edge id=":180251830_1" function="internal">
        <lane id=":180251830_1_0" index="0" speed="13.89" length="8.00" width="4.00" shape="1107.29,1117.16 1107.26,1125.16"/>
    </edge>
    <edge id=":180251830_2" function="internal">
        <lane id=":180251830_2_0" index="0" speed="4.08" length="1.99" width="4.00" shape="1107.29,1117.16 1106.28,1118.66 1106.11,1118.74"/>
    </edge>
    <edge id=":180251830_6" function="internal">
        <lane id=":180251830_6_0" index="0" speed="4.08" length="3.85" width="4.00" shape="1106.11,1118.74 1105.28,1119.15 1104.28,1118.65 1103.29,1117.15"/>
    </edge>
    <edge id=":180251830_3" function="internal">
        <lane id=":180251830_3_0" index="0" speed="13.89" length="7.99" width="4.00" shape="1103.26,1125.14 1103.29,1117.15"/>
    </edge>
    <edge id=":180251830_4" function="internal">
        <lane id=":180251830_4_0" index="0" speed="6.28" length="2.73" width="4.00" shape="1103.26,1125.14 1103.65,1123.39 1104.28,1122.70"/>
    </edge>
    <edge id=":180251830_5" function="internal">
        <lane id=":180251830_5_0" index="0" speed="4.08" length="1.99" width="4.00" shape="1103.26,1125.14 1104.27,1123.64 1104.44,1123.56"/>
    </edge>
    <edge id=":180251830_7" function="internal">
        <lane id=":180251830_7_0" index="0" speed="6.28" length="5.39" width="4.00" shape="1104.28,1122.70 1104.78,1122.15 1106.66,1121.42 1109.28,1121.20"/>
    </edge>
    <edge id=":180251830_8" function="internal">
        <lane id=":180251830_8_0" index="0" speed="4.08" length="3.85" width="4.00" shape="1104.44,1123.56 1105.27,1123.15 1106.27,1123.66 1107.26,1125.16"/>
    </edge>
    <edge id=":180251831_0" function="internal">
        <lane id=":180251831_0_0" index="0" speed="5.10" length="4.91" width="4.00" shape="1109.79,1021.45 1108.91,1021.68 1108.27,1022.42 1107.89,1023.65 1107.75,1025.38"/>
    </edge>
    <edge id=":180251831_1" function="internal">
        <lane id=":180251831_1_0" index="0" speed="13.89" length="11.23" width="4.00" shape="1109.79,1021.45 1106.66,1021.71 1104.28,1022.36 1101.89,1023.03 1098.76,1023.31"/>
    </edge>
    <edge id=":180251831_2" function="internal">
        <lane id=":180251831_2_0" index="0" speed="6.95" length="9.99" width="4.00" shape="1109.79,1021.45 1107.59,1020.76 1105.66,1019.06 1104.29,1016.79 1103.76,1014.38"/>
    </edge>
    <edge id=":180251831_3" function="internal">
        <lane id=":180251831_3_0" index="0" speed="13.89" length="11.02" width="4.00" shape="1107.76,1014.36 1107.75,1025.38"/>
    </edge>
    <edge id=":180251831_4" function="internal">
        <lane id=":180251831_4_0" index="0" speed="8.11" length="4.96" width="4.00" shape="1107.76,1014.36 1107.22,1018.31 1106.72,1019.15"/>
    </edge>
    <edge id=":180251831_5" function="internal">
        <lane id=":180251831_5_0" index="0" speed="4.08" length="2.00" width="4.00" shape="1107.76,1014.36 1106.77,1015.87 1106.59,1015.96"/>
    </edge>
    <edge id=":180251831_12" function="internal">
        <lane id=":180251831_12_0" index="0" speed="8.11" length="9.56" width="4.00" shape="1106.72,1019.15 1105.54,1021.11 1102.72,1022.78 1098.76,1023.31"/>
    </edge>
    <edge id=":180251831_13" function="internal">
        <lane id=":180251831_13_0" index="0" speed="4.08" length="3.84" width="4.00" shape="1106.59,1015.96 1105.77,1016.37 1104.77,1015.88 1103.76,1014.38"/>
    </edge>
    <edge id=":180251831_6" function="internal">
        <lane id=":180251831_6_0" index="0" speed="6.22" length="8.00" width="4.00" shape="1098.80,1019.31 1100.98,1019.02 1102.54,1018.10 1103.46,1016.55 1103.76,1014.38"/>
    </edge>
    <edge id=":180251831_7" function="internal">
        <lane id=":180251831_7_0" index="0" speed="7.35" length="11.54" width="4.00" shape="1098.80,1019.31 1101.72,1019.85 1104.63,1021.23 1106.87,1023.17 1107.75,1025.38"/>
    </edge>
    <edge id=":180251831_8" function="internal">
        <lane id=":180251831_8_0" index="0" speed="4.08" length="2.05" width="4.00" shape="1098.80,1019.31 1100.29,1020.32 1100.40,1020.55"/>
    </edge>
    <edge id=":180251831_14" function="internal">
        <lane id=":180251831_14_0" index="0" speed="4.08" length="3.79" width="4.00" shape="1100.40,1020.55 1100.78,1021.33 1100.27,1022.32 1098.76,1023.31"/>
    </edge>
    <edge id=":180251831_9" function="internal">
        <lane id=":180251831_9_0" index="0" speed="5.49" length="5.86" width="4.00" shape="1103.75,1025.36 1103.44,1024.48 1102.51,1023.84 1100.95,1023.45 1098.76,1023.31"/>
    </edge>
    <edge id=":180251831_10" function="internal">
        <lane id=":180251831_10_0" index="0" speed="13.89" length="10.97" width="4.00" shape="1103.75,1025.36 1103.76,1014.38"/>
    </edge>
    <edge id=":180251831_11" function="internal">
        <lane id=":180251831_11_0" index="0" speed="4.08" length="1.99" width="4.00" shape="1103.75,1025.36 1104.76,1023.86 1104.93,1023.78"/>
    </edge>
    <edge id=":180251831_15" function="internal">
        <lane id=":180251831_15_0" index="0" speed="4.08" length="3.86" width="4.00" shape="1104.93,1023.78 1105.76,1023.37 1106.76,1023.88 1107.75,1025.38"/>
    </edge>
    <edge id=":180251832_0" function="internal">
        <lane id=":180251832_0_0" index="0" speed="13.89" length="8.01" width="4.00" shape="1103.64,923.22 1103.68,915.21"/>
    </edge>
    <edge id=":180251832_1" function="internal">
        <lane id=":180251832_1_0" index="0" speed="6.28" length="2.75" width="4.00" shape="1103.64,923.22 1104.02,921.47 1104.66,920.76"/>
    </edge>
    <edge id=":180251832_2" function="internal">
        <lane id=":180251832_2_0" index="0" speed="4.08" length="2.00" width="4.00" shape="1103.64,923.22 1104.64,921.72 1104.82,921.64"/>
    </edge>
    <edge id=":180251832_6" function="internal">
        <lane id=":180251832_6_0" index="0" speed="6.28" length="5.38" width="4.00" shape="1104.66,920.76 1105.14,920.22 1107.03,919.49 1109.66,919.27"/>
    </edge>
    <edge id=":180251832_7" function="internal">
        <lane id=":180251832_7_0" index="0" speed="4.08" length="3.84" width="4.00" shape="1104.82,921.64 1105.64,921.22 1106.64,921.73 1107.64,923.23"/>
    </edge>
    <edge id=":180251832_3" function="internal">
        <lane id=":180251832_3_0" index="0" speed="5.14" length="4.96" width="4.00" shape="1107.68,915.25 1107.79,917.00 1108.16,918.25 1108.78,919.01 1109.66,919.27"/>
    </edge>
    <edge id=":180251832_4" function="internal">
        <lane id=":180251832_4_0" index="0" speed="13.89" length="7.98" width="4.00" shape="1107.68,915.25 1107.64,923.23"/>
    </edge>
    <edge id=":180251832_5" function="internal">
        <lane id=":180251832_5_0" index="0" speed="4.08" length="1.99" width="4.00" shape="1107.68,915.25 1106.67,916.74 1106.50,916.82"/>
    </edge>
    <edge id=":180251832_8" function="internal">
        <lane id=":180251832_8_0" index="0" speed="4.08" length="3.85" width="4.00" shape="1106.50,916.82 1105.66,917.23 1104.67,916.72 1103.68,915.21"/>
    </edge>
    <edge id=":180251835_0" function="internal">
        <lane id=":180251835_0_0" index="0" speed="6.28" length="8.05" width="4.00" shape="1113.51,819.67 1111.32,819.97 1109.75,820.89 1108.79,822.44 1108.46,824.61"/>
    </edge>
    <edge id=":180251835_1" function="internal">