<?xml version="1.0" encoding="UTF-8"?>

<!-- generated on 2024-09-05 11:03:35 by Eclipse SUMO netconvert Version 1.12.0
<configuration xmlns:xsi="http://www.w3.org/2001/XMLSchema-instance" xsi:noNamespaceSchemaLocation="http://sumo.dlr.de/xsd/netconvertConfiguration.xsd">

    <input>
        <node-files value="./sumo.nod.xml"/>
        <edge-files value="./sumo.edg.xml"/>
    </input>

    <output>
        <output-file value="./sumo.net.xml"/>
    </output>

    <report>
        <aggregate-warnings value="5"/>
    </report>

</configuration>
-->

<net version="1.9" junctionCornerDetail="5" limitTurnSpeed="5.50" xmlns:xsi="http://www.w3.org/2001/XMLSchema-instance" xsi:noNamespaceSchemaLocation="http://sumo.dlr.de/xsd/net_file.xsd">

    <location netOffset="300.69,307.90" convBoundary="0.00,0.00,603.26,634.41" origBoundary="-301.13,-314.45,308.57,326.51" projParameter="!"/>

    <edge id=":-59271_0" function="internal">
        <lane id=":-59271_0_0" index="0" speed="4.35" length="3.65" width="3.00" shape="18.97,367.78 19.01,368.79 19.37,369.53 20.04,369.99 21.03,370.19"/>
        <lane id=":-59271_0_1" index="1" speed="5.46" length="6.33" width="3.00" shape="18.97,367.78 18.89,370.10 19.18,371.77 19.84,372.80 20.86,373.19"/>
        <lane id=":-59271_0_2" index="2" speed="6.43" length="9.18" width="3.00" shape="18.97,367.78 18.77,371.41 18.99,374.01 19.63,375.61 20.70,376.18"/>
        <lane id=":-59271_0_3" index="3" speed="7.29" length="12.08" width="3.00" shape="18.97,367.78 18.64,372.71 18.79,376.26 19.42,378.41 20.53,379.18"/>
    </edge>
    <edge id=":-59271_4" function="internal">
        <lane id=":-59271_4_0" index="0" speed="13.89" length="13.99" width="3.00" shape="18.97,367.78 18.05,381.45"/>
        <lane id=":-59271_4_1" index="1" speed="13.89" length="13.99" width="3.00" shape="15.99,367.48 15.05,381.34"/>
        <lane id=":-59271_4_2" index="2" speed="13.89" length="13.99" width="3.00" shape="13.00,367.18 12.05,381.24"/>
        <lane id=":-59271_4_3" index="3" speed="13.89" length="13.99" width="3.00" shape="10.02,366.88 9.05,381.14"/>
    </edge>
    <edge id=":-59275_0" function="internal">
        <lane id=":-59275_0_0" index="0" speed="13.89" length="14.00" width="3.00" shape="578.97,290.02 580.32,303.87"/>
        <lane id=":-59275_0_1" index="1" speed="13.89" length="14.00" width="3.00" shape="575.98,290.29 577.34,304.19"/>
        <lane id=":-59275_0_2" index="2" speed="13.89" length="14.00" width="3.00" shape="572.99,290.55 574.36,304.51"/>
        <lane id=":-59275_0_3" index="3" speed="13.89" length="14.00" width="3.00" shape="570.00,290.82 571.38,304.83"/>
    </edge>
    <edge id=":-59275_4" function="internal">
        <lane id=":-59275_4_0" index="0" speed="8.99" length="1.13" width="3.00" shape="567.57,293.86 568.70,293.87"/>
        <lane id=":-59275_4_1" index="1" speed="7.78" length="1.02" width="3.00" shape="567.97,296.83 568.99,296.84"/>
        <lane id=":-59275_4_2" index="2" speed="6.34" length="0.92" width="3.00" shape="568.36,299.80 569.28,299.81"/>
        <lane id=":-59275_4_3" index="3" speed="4.46" length="0.81" width="3.00" shape="568.76,302.78 569.57,302.79"/>
    </edge>
    <edge id=":-59275_8" function="internal">
        <lane id=":-59275_8_0" index="0" speed="8.99" length="17.48" width="3.00" shape="568.70,293.87 572.69,293.91 576.52,295.59 579.06,298.92 580.32,303.87"/>
    </edge>
    <edge id=":-59275_9" function="internal">
        <lane id=":-59275_9_0" index="0" speed="7.78" length="12.65" width="3.00" shape="568.99,296.84 571.73,296.87 574.54,298.11 576.41,300.55 577.34,304.19"/>
    </edge>
    <edge id=":-59275_10" function="internal">
        <lane id=":-59275_10_0" index="0" speed="6.34" length="7.83" width="3.00" shape="569.28,299.81 570.77,299.83 572.57,300.62 573.77,302.18 574.36,304.51"/>
    </edge>
    <edge id=":-59275_11" function="internal">
        <lane id=":-59275_11_0" index="0" speed="4.46" length="3.01" width="3.00" shape="569.57,302.79 569.81,302.79 570.59,303.13 571.12,303.82 571.38,304.83"/>
    </edge>
    <edge id=":-59277_0" function="internal">
        <lane id=":-59277_0_0" index="0" speed="4.55" length="3.96" width="3.00" shape="241.17,369.00 242.23,368.77 242.96,368.26 243.37,367.46 243.44,366.37"/>
        <lane id=":-59277_0_1" index="1" speed="5.62" length="6.58" width="3.00" shape="241.17,369.00 243.54,368.68 245.21,368.10 246.17,367.26 246.43,366.15"/>
        <lane id=":-59277_0_2" index="2" speed="6.58" length="9.37" width="3.00" shape="241.17,369.00 244.85,368.59 247.45,367.94 248.98,367.05 249.42,365.92"/>
        <lane id=":-59277_0_3" index="3" speed="7.43" length="12.23" width="3.00" shape="241.17,369.00 246.16,368.50 249.70,367.79 251.78,366.85 252.41,365.70"/>
    </edge>
    <edge id=":-59277_4" function="internal">
        <lane id=":-59277_4_0" index="0" speed="13.89" length="14.00" width="3.00" shape="241.17,369.00 255.13,368.05"/>
        <lane id=":-59277_4_1" index="1" speed="13.89" length="14.00" width="3.00" shape="241.37,371.99 255.34,371.05"/>
        <lane id=":-59277_4_2" index="2" speed="13.89" length="14.00" width="3.00" shape="241.57,374.98 255.54,374.04"/>
        <lane id=":-59277_4_3" index="3" speed="13.89" length="14.00" width="3.00" shape="241.77,377.98 255.74,377.03"/>
    </edge>
    <edge id=":-59280_0" function="internal">
        <lane id=":-59280_0_0" index="0" speed="9.12" length="1.48" width="3.00" shape="191.75,46.56 191.82,45.08"/>
        <lane id=":-59280_0_1" index="1" speed="7.92" length="1.17" width="3.00" shape="194.73,46.29 194.79,45.12"/>
        <lane id=":-59280_0_2" index="2" speed="6.52" length="0.99" width="3.00" shape="197.72,46.02 197.77,45.03"/>
        <lane id=":-59280_0_3" index="3" speed="4.70" length="0.97" width="3.00" shape="200.71,45.75 200.76,44.78"/>
    </edge>
    <edge id=":-59280_8" function="internal">
        <lane id=":-59280_8_0" index="0" speed="9.12" length="17.02" width="3.00" shape="191.82,45.08 192.01,41.51 193.81,37.72 197.16,35.20 202.06,33.93"/>
    </edge>
    <edge id=":-59280_9" function="internal">
        <lane id=":-59280_9_0" index="0" speed="7.92" length="12.57" width="3.00" shape="194.79,45.12 194.93,42.54 196.27,39.73 198.75,37.85 202.39,36.91"/>
    </edge>
    <edge id=":-59280_10" function="internal">
        <lane id=":-59280_10_0" index="0" speed="6.52" length="7.98" width="3.00" shape="197.77,45.03 197.85,43.57 198.72,41.73 200.35,40.51 202.72,39.90"/>
    </edge>
    <edge id=":-59280_11" function="internal">
        <lane id=":-59280_11_0" index="0" speed="4.70" length="3.24" width="3.00" shape="200.76,44.78 200.77,44.60 201.18,43.74 201.94,43.16 203.05,42.88"/>
    </edge>
    <edge id=":-59280_4" function="internal">
        <lane id=":-59280_4_0" index="0" speed="13.89" length="13.99" width="3.00" shape="188.74,34.47 192.70,34.58 195.41,34.56 198.12,34.36 202.06,33.93"/>
        <lane id=":-59280_4_1" index="1" speed="13.89" length="13.99" width="3.00" shape="188.65,37.47 192.73,37.58 195.53,37.56 198.32,37.35 202.39,36.91"/>
        <lane id=":-59280_4_2" index="2" speed="13.89" length="13.99" width="3.00" shape="188.56,40.47 192.77,40.58 195.65,40.56 198.53,40.35 202.72,39.90"/>
        <lane id=":-59280_4_3" index="3" speed="13.89" length="13.99" width="3.00" shape="188.47,43.47 192.80,43.58 195.78,43.56 198.74,43.34 203.05,42.88"/>
    </edge>
    <edge id=":-59282_0" function="internal">
        <lane id=":-59282_0_0" index="0" speed="13.89" length="14.00" width="3.00" shape="347.47,354.32 360.76,349.92"/>
        <lane id=":-59282_0_1" index="1" speed="13.89" length="14.00" width="3.00" shape="348.41,357.17 361.70,352.77"/>
        <lane id=":-59282_0_2" index="2" speed="13.89" length="14.00" width="3.00" shape="349.35,360.02 362.64,355.62"/>
        <lane id=":-59282_0_3" index="3" speed="13.89" length="14.00" width="3.00" shape="350.29,362.87 363.58,358.47"/>
    </edge>
    <edge id=":-59282_4" function="internal">
        <lane id=":-59282_4_0" index="0" speed="7.53" length="12.34" width="3.00" shape="350.29,362.87 355.15,361.42 358.74,360.71 361.06,360.73 362.09,361.50"/>
        <lane id=":-59282_4_1" index="1" speed="6.68" length="9.51" width="3.00" shape="350.29,362.87 353.91,361.83 356.61,361.43 358.40,361.65 359.26,362.50"/>
        <lane id=":-59282_4_2" index="2" speed="5.74" length="6.76" width="3.00" shape="350.29,362.87 352.66,362.25 354.48,362.15 355.74,362.56 356.43,363.50"/>
        <lane id=":-59282_4_3" index="3" speed="4.69" length="4.19" width="3.00" shape="350.29,362.87 351.42,362.66 352.35,362.87 353.08,363.48 353.60,364.49"/>
    </edge>
    <edge id=":-59286_0" function="internal">
        <lane id=":-59286_0_0" index="0" speed="4.50" length="3.89" width="3.00" shape="514.83,594.90 515.41,595.80 516.13,596.29 517.00,596.37 518.02,596.05"/>
        <lane id=":-59286_0_1" index="1" speed="6.37" length="8.78" width="3.00" shape="512.10,596.16 513.42,598.18 515.06,599.29 517.03,599.48 519.33,598.75"/>
        <lane id=":-59286_0_2" index="2" speed="7.80" length="13.68" width="3.00" shape="509.38,597.42 511.42,600.57 513.98,602.30 517.05,602.59 520.63,601.45"/>
        <lane id=":-59286_0_3" index="3" speed="9.01" length="18.58" width="3.00" shape="506.66,598.67 509.43,602.96 512.90,605.30 517.07,605.70 521.94,604.15"/>
    </edge>
    <edge id=":-59286_4" function="internal">
        <lane id=":-59286_4_0" index="0" speed="13.89" length="14.00" width="3.00" shape="505.45,601.87 518.02,596.05"/>
        <lane id=":-59286_4_1" index="1" speed="13.89" length="14.00" width="3.00" shape="506.67,604.62 519.33,598.75"/>
        <lane id=":-59286_4_2" index="2" speed="13.89" length="14.00" width="3.00" shape="507.89,607.36 520.63,601.45"/>
        <lane id=":-59286_4_3" index="3" speed="13.89" length="14.00" width="3.00" shape="509.11,610.10 521.94,604.15"/>
    </edge>
    <edge id=":-59288_0" function="internal">
        <lane id=":-59288_0_0" index="0" speed="13.89" length="13.98" width="3.00" shape="229.88,226.52 229.37,222.65 228.91,220.01 228.23,217.42 227.08,213.68"/>
        <lane id=":-59288_0_1" index="1" speed="13.89" length="13.98" width="3.00" shape="232.85,226.15 232.33,222.11 231.84,219.37 231.14,216.67 229.94,212.78"/>
        <lane id=":-59288_0_2" index="2" speed="13.89" length="13.98" width="3.00" shape="235.83,225.77 235.28,221.58 234.78,218.73 234.05,215.92 232.80,211.89"/>
        <lane id=":-59288_0_3" index="3" speed="13.89" length="13.98" width="3.00" shape="238.80,225.40 238.24,221.05 237.72,218.09 236.96,215.18 235.66,210.99"/>
    </edge>
    <edge id=":-59288_4" function="internal">
        <lane id=":-59288_4_0" index="0" speed="7.37" length="12.16" width="3.00" shape="238.80,225.40 238.35,220.44 238.39,216.86 238.93,214.66 239.98,213.84"/>
        <lane id=":-59288_4_1" index="1" speed="6.51" length="9.28" width="3.00" shape="238.80,225.40 238.51,221.74 238.65,219.09 239.24,217.45 240.28,216.82"/>
        <lane id=":-59288_4_2" index="2" speed="5.55" length="6.47" width="3.00" shape="238.80,225.40 238.66,223.04 238.91,221.33 239.55,220.25 240.58,219.81"/>
        <lane id=":-59288_4_3" index="3" speed="4.46" length="3.82" width="3.00" shape="238.80,225.40 238.82,224.35 239.18,223.56 239.86,223.04 240.88,222.79"/>
    </edge>
    <edge id=":-59291_0" function="internal">
        <lane id=":-59291_0_0" index="0" speed="13.89" length="14.00" width="3.00" shape="568.96,178.21 570.29,192.20"/>
        <lane id=":-59291_0_1" index="1" speed="13.89" length="14.00" width="3.00" shape="565.98,178.51 567.31,192.47"/>
        <lane id=":-59291_0_2" index="2" speed="13.89" length="14.00" width="3.00" shape="562.99,178.82 564.32,192.73"/>
        <lane id=":-59291_0_3" index="3" speed="13.89" length="14.00" width="3.00" shape="560.01,179.12 561.33,193.00"/>
    </edge>
    <edge id=":-59291_4" function="internal">
        <lane id=":-59291_4_0" index="0" speed="9.03" length="0.86" width="3.00" shape="557.78,181.85 558.64,181.89"/>
        <lane id=":-59291_4_1" index="1" speed="7.82" length="0.85" width="3.00" shape="558.08,184.84 558.93,184.87"/>
        <lane id=":-59291_4_2" index="2" speed="6.39" length="0.83" width="3.00" shape="558.38,187.82 559.21,187.86"/>
        <lane id=":-59291_4_3" index="3" speed="4.53" length="0.82" width="3.00" shape="558.68,190.81 559.49,190.84"/>
    </edge>
    <edge id=":-59291_8" function="internal">
        <lane id=":-59291_8_0" index="0" speed="9.03" length="17.71" width="3.00" shape="558.64,181.89 562.87,182.07 566.65,183.86 569.13,187.24 570.29,192.20"/>
    </edge>
    <edge id=":-59291_9" function="internal">
        <lane id=":-59291_9_0" index="0" speed="7.82" length="12.84" width="3.00" shape="558.93,184.87 561.83,185.00 564.62,186.32 566.45,188.81 567.31,192.47"/>
    </edge>
    <edge id=":-59291_10" function="internal">
        <lane id=":-59291_10_0" index="0" speed="6.39" length="7.98" width="3.00" shape="559.21,187.86 560.80,187.92 562.59,188.78 563.76,190.38 564.32,192.73"/>
    </edge>
    <edge id=":-59291_11" function="internal">
        <lane id=":-59291_11_0" index="0" speed="4.53" length="3.12" width="3.00" shape="559.49,190.84 559.76,190.85 560.56,191.23 561.08,191.95 561.33,193.00"/>
    </edge>
    <edge id=":-59319_0" function="internal">
        <lane id=":-59319_0_0" index="0" speed="4.86" length="4.46" width="3.00" shape="10.49,602.91 10.62,604.12 11.10,605.02 11.94,605.60 13.12,605.87"/>
        <lane id=":-59319_0_1" index="1" speed="6.64" length="9.12" width="3.00" shape="7.50,602.81 7.76,605.28 8.74,607.11 10.44,608.30 12.86,608.86"/>
        <lane id=":-59319_0_2" index="2" speed="8.03" length="13.78" width="3.00" shape="4.50,602.71 4.90,606.44 6.38,609.20 8.95,611.01 12.60,611.85"/>
        <lane id=":-59319_0_3" index="3" speed="9.21" length="18.44" width="3.00" shape="1.50,602.60 2.03,607.59 4.02,611.30 7.46,613.71 12.34,614.84"/>
    </edge>
    <edge id=":-59326_0" function="internal">
        <lane id=":-59326_0_0" index="0" speed="9.03" length="18.57" width="3.00" shape="538.86,-3.70 543.95,-3.54 547.75,-1.78 550.27,1.56 551.50,6.51"/>
        <lane id=":-59326_0_1" index="1" speed="7.83" length="13.69" width="3.00" shape="539.19,-0.71 542.95,-0.60 545.75,0.70 547.61,3.17 548.51,6.81"/>
        <lane id=":-59326_0_2" index="2" speed="6.40" length="8.82" width="3.00" shape="539.52,2.27 541.94,2.34 543.75,3.18 544.95,4.77 545.53,7.12"/>
        <lane id=":-59326_0_3" index="3" speed="4.54" length="3.95" width="3.00" shape="539.86,5.25 540.94,5.28 541.75,5.66 542.28,6.37 542.54,7.42"/>
    </edge>
    <edge id=":-59432_0" function="internal">
        <lane id=":-59432_0_0" index="0" speed="13.89" length="0.69" width="3.00" shape="163.52,374.24 164.16,374.19"/>
        <lane id=":-59432_0_1" index="1" speed="13.89" length="0.69" width="3.00" shape="163.69,377.23 164.36,377.19"/>
        <lane id=":-59432_0_2" index="2" speed="13.89" length="0.69" width="3.00" shape="163.85,380.23 164.56,380.18"/>
        <lane id=":-59432_0_3" index="3" speed="13.89" length="0.69" width="3.00" shape="164.02,383.22 164.76,383.17"/>
    </edge>
    <edge id=":-59433_0" function="internal">
        <lane id=":-59433_0_0" index="0" speed="13.89" length="0.10" width="3.00" shape="307.16,364.54 307.16,364.54"/>
        <lane id=":-59433_0_1" index="1" speed="13.89" length="0.10" width="3.00" shape="307.37,367.54 307.37,367.54"/>
        <lane id=":-59433_0_2" index="2" speed="13.89" length="0.10" width="3.00" shape="307.57,370.53 307.57,370.53"/>
        <lane id=":-59433_0_3" index="3" speed="13.89" length="0.10" width="3.00" shape="307.77,373.52 307.77,373.52"/>
    </edge>
    <edge id=":-59434_0" function="internal">
        <lane id=":-59434_0_0" index="0" speed="13.89" length="0.10" width="3.00" shape="456.33,318.31 456.33,318.31"/>
        <lane id=":-59434_0_1" index="1" speed="13.89" length="0.10" width="3.00" shape="457.27,321.16 457.27,321.16"/>
        <lane id=":-59434_0_2" index="2" speed="13.89" length="0.10" width="3.00" shape="458.22,324.01 458.22,324.01"/>
        <lane id=":-59434_0_3" index="3" speed="13.89" length="0.10" width="3.00" shape="459.16,326.86 459.16,326.86"/>
    </edge>
    <edge id=":-59435_0" function="internal">
        <lane id=":-59435_0_0" index="0" speed="13.89" length="0.30" width="3.00" shape="436.07,492.48 436.27,492.70"/>
        <lane id=":-59435_0_1" index="1" speed="13.89" length="0.30" width="3.00" shape="433.86,494.51 434.06,494.73"/>
        <lane id=":-59435_0_2" index="2" speed="13.89" length="0.30" width="3.00" shape="431.64,496.53 431.84,496.75"/>
        <lane id=":-59435_0_3" index="3" speed="13.89" length="0.30" width="3.00" shape="429.43,498.55 429.63,498.78"/>
    </edge>
    <edge id=":-59436_0" function="internal">
        <lane id=":-59436_0_0" index="0" speed="13.89" length="0.45" width="3.00" shape="147.08,617.46 147.50,617.50"/>
        <lane id=":-59436_0_1" index="1" speed="13.89" length="0.45" width="3.00" shape="146.82,620.45 147.26,620.49"/>
        <lane id=":-59436_0_2" index="2" speed="13.89" length="0.45" width="3.00" shape="146.57,623.44 147.03,623.48"/>
        <lane id=":-59436_0_3" index="3" speed="13.89" length="0.45" width="3.00" shape="146.31,626.43 146.79,626.47"/>
    </edge>
    <edge id=":-59437_0" function="internal">
        <lane id=":-59437_0_0" index="0" speed="13.89" length="0.27" width="3.00" shape="351.13,622.41 351.38,622.41"/>
        <lane id=":-59437_0_1" index="1" speed="13.89" length="0.27" width="3.00" shape="351.15,625.41 351.42,625.41"/>
        <lane id=":-59437_0_2" index="2" speed="13.89" length="0.27" width="3.00" shape="351.17,628.41 351.45,628.41"/>
        <lane id=":-59437_0_3" index="3" speed="13.89" length="0.27" width="3.00" shape="351.19,631.41 351.49,631.40"/>
    </edge>
    <edge id=":-59438_0" function="internal">
        <lane id=":-59438_0_0" index="0" speed="13.89" length="0.10" width="3.00" shape="14.04,499.06 14.04,499.06"/>
        <lane id=":-59438_0_1" index="1" speed="13.89" length="0.10" width="3.00" shape="11.04,498.96 11.04,498.96"/>
        <lane id=":-59438_0_2" index="2" speed="13.89" length="0.10" width="3.00" shape="8.04,498.86 8.04,498.86"/>
        <lane id=":-59438_0_3" index="3" speed="13.89" length="0.10" width="3.00" shape="5.04,498.75 5.04,498.75"/>
    </edge>
    <edge id=":-59439_0" function="internal">
        <lane id=":-59439_0_0" index="0" speed="13.89" length="0.10" width="3.00" shape="33.89,205.90 33.89,205.90"/>
        <lane id=":-59439_0_1" index="1" speed="13.89" length="0.10" width="3.00" shape="30.89,205.83 30.89,205.83"/>
        <lane id=":-59439_0_2" index="2" speed="13.89" length="0.10" width="3.00" shape="27.89,205.75 27.89,205.75"/>
        <lane id=":-59439_0_3" index="3" speed="13.89" length="0.10" width="3.00" shape="24.89,205.67 24.89,205.67"/>
    </edge>
    <edge id=":-59445_0" function="internal">
        <lane id=":-59445_0_0" index="0" speed="13.89" length="0.10" width="3.00" shape="405.27,197.20 405.27,197.20"/>
        <lane id=":-59445_0_1" index="1" speed="13.89" length="0.10" width="3.00" shape="405.57,200.18 405.57,200.18"/>
        <lane id=":-59445_0_2" index="2" speed="13.89" length="0.10" width="3.00" shape="405.87,203.17 405.87,203.17"/>
        <lane id=":-59445_0_3" index="3" speed="13.89" length="0.10" width="3.00" shape="406.18,206.15 406.18,206.15"/>
    </edge>
    <edge id=":-59450_0" function="internal">
        <lane id=":-59450_0_0" index="0" speed="13.89" length="0.10" width="3.00" shape="392.36,12.67 392.36,12.67"/>
        <lane id=":-59450_0_1" index="1" speed="13.89" length="0.10" width="3.00" shape="392.69,15.65 392.69,15.65"/>
        <lane id=":-59450_0_2" index="2" speed="13.89" length="0.10" width="3.00" shape="393.02,18.63 393.02,18.63"/>
        <lane id=":-59450_0_3" index="3" speed="13.89" length="0.10" width="3.00" shape="393.36,21.62 393.36,21.62"/>
    </edge>
    <edge id=":-59451_0" function="internal">
        <lane id=":-59451_0_0" index="0" speed="13.89" length="0.10" width="3.00" shape="595.11,441.70 595.11,441.70"/>
        <lane id=":-59451_0_1" index="1" speed="13.89" length="0.10" width="3.00" shape="592.13,442.02 592.13,442.02"/>
        <lane id=":-59451_0_2" index="2" speed="13.89" length="0.10" width="3.00" shape="589.14,442.34 589.14,442.34"/>
        <lane id=":-59451_0_3" index="3" speed="13.89" length="0.10" width="3.00" shape="586.16,442.66 586.16,442.66"/>
    </edge>

    <edge id="-7461_1" from="-59433" to="-59282" priority="-1" shape="307.87,375.02 320.25,374.18 320.75,374.13 321.24,374.03 321.73,373.89 350.76,364.29">
        <lane id="-7461_1_0" index="0" speed="13.89" length="42.98" width="3.00" shape="307.16,364.54 318.88,363.75 319.06,363.72 347.47,354.32"/>
        <lane id="-7461_1_1" index="1" speed="13.89" length="42.98" width="3.00" shape="307.37,367.54 319.27,366.73 319.82,366.62 348.41,357.17"/>
        <lane id="-7461_1_2" index="2" speed="13.89" length="42.98" width="3.00" shape="307.57,370.53 319.94,369.69 320.07,369.68 320.19,369.66 320.41,369.59 349.35,360.02"/>
        <lane id="-7461_1_3" index="3" speed="13.89" length="42.98" width="3.00" shape="307.77,373.52 320.15,372.69 320.52,372.65 320.89,372.57 321.29,372.46 350.29,362.87"/>
    </edge>
    <edge id="-7461_2" from="-59282" to="-59434" priority="-1" shape="364.05,359.89 459.63,328.28">
        <lane id="-7461_2_0" index="0" speed="13.89" length="100.67" width="3.00" shape="360.76,349.92 456.33,318.31"/>
        <lane id="-7461_2_1" index="1" speed="13.89" length="100.67" width="3.00" shape="361.70,352.77 457.27,321.16"/>
        <lane id="-7461_2_2" index="2" speed="13.89" length="100.67" width="3.00" shape="362.64,355.62 458.22,324.01"/>
        <lane id="-7461_2_3" index="3" speed="13.89" length="100.67" width="3.00" shape="363.58,358.47 459.16,326.86"/>
    </edge>
    <edge id="-7467" from="-59277" to="-59288" priority="-1" shape="253.91,365.58 247.83,285.24 247.80,284.95 240.29,225.21">
        <lane id="-7467_0" index="0" speed="13.89" length="140.78" width="3.00" shape="243.44,366.37 237.36,286.04 229.88,226.52"/>
        <lane id="-7467_1" index="1" speed="13.89" length="140.78" width="3.00" shape="246.43,366.15 240.35,285.81 232.85,226.15"/>
        <lane id="-7467_2" index="2" speed="13.89" length="140.78" width="3.00" shape="249.42,365.92 243.34,285.58 243.33,285.46 235.83,225.77"/>
        <lane id="-7467_3" index="3" speed="13.89" length="140.78" width="3.00" shape="252.41,365.70 246.33,285.36 246.31,285.12 238.80,225.40"/>
    </edge>
    <edge id="-7472" from="-59435" to="-59286" priority="-1" shape="428.42,499.68 437.11,509.19 437.75,509.80 479.82,544.12 505.29,599.30">
        <lane id="-7472_0" index="0" speed="13.89" length="130.70" width="3.00" shape="436.27,492.70 444.83,502.08 444.69,501.90 488.34,537.52 514.83,594.90"/>
        <lane id="-7472_1" index="1" speed="13.89" length="130.70" width="3.00" shape="434.06,494.73 442.63,504.11 485.91,539.40 512.10,596.16"/>
        <lane id="-7472_2" index="2" speed="13.89" length="130.70" width="3.00" shape="431.84,496.75 440.42,506.14 440.72,506.41 483.47,541.29 509.38,597.42"/>
        <lane id="-7472_3" index="3" speed="13.89" length="130.70" width="3.00" shape="429.63,498.78 438.22,508.18 438.74,508.67 481.04,543.17 506.66,598.67"/>
    </edge>
    <edge id="-7478" from="-59288" to="-59445" priority="-1" shape="241.03,224.28 300.71,218.28 366.45,211.66 406.33,207.65">
        <lane id="-7478_0" index="0" speed="13.89" length="166.13" width="3.00" shape="239.98,213.84 299.65,207.83 365.40,201.21 405.27,197.20"/>
        <lane id="-7478_1" index="1" speed="13.89" length="166.13" width="3.00" shape="240.28,216.82 299.95,210.81 365.70,204.20 405.57,200.18"/>
        <lane id="-7478_2" index="2" speed="13.89" length="166.13" width="3.00" shape="240.58,219.81 300.25,213.80 366.00,207.18 405.87,203.17"/>
        <lane id="-7478_3" index="3" speed="13.89" length="166.13" width="3.00" shape="240.88,222.79 300.56,216.78 366.30,210.17 406.18,206.15"/>
    </edge>
    <edge id="-7495" from="-59437" to="-59286" priority="-1" shape="351.36,632.91 463.21,631.61 463.81,631.57 464.42,631.47 465.00,631.31 465.57,631.10 509.72,611.47">
        <lane id="-7495_0" index="0" speed="13.89" length="160.00" width="3.00" shape="351.38,622.41 462.01,621.13 462.29,621.07 505.45,601.87"/>
        <lane id="-7495_1" index="1" speed="13.89" length="160.00" width="3.00" shape="351.42,625.41 462.35,624.12 463.23,623.93 506.67,604.62"/>
        <lane id="-7495_2" index="2" speed="13.89" length="160.00" width="3.00" shape="351.45,628.41 463.15,627.11 463.31,627.10 463.46,627.08 463.60,627.04 463.85,626.94 507.89,607.36"/>
        <lane id="-7495_3" index="3" speed="13.89" length="160.00" width="3.00" shape="351.49,631.40 463.19,630.11 463.64,630.08 464.10,630.01 464.54,629.89 465.00,629.71 509.11,610.10"/>
    </edge>
    <edge id="-7499" from="-59439" to="-59271" priority="-1" shape="23.39,205.63 22.91,224.30 8.52,366.73">
        <lane id="-7499_0" index="0" speed="13.89" length="162.28" width="3.00" shape="33.89,205.90 33.40,224.97 18.97,367.78"/>
        <lane id="-7499_1" index="1" speed="13.89" length="162.28" width="3.00" shape="30.89,205.83 30.40,224.78 15.99,367.48"/>
        <lane id="-7499_2" index="2" speed="13.89" length="162.28" width="3.00" shape="27.89,205.75 27.40,224.59 13.00,367.18"/>
        <lane id="-7499_3" index="3" speed="13.89" length="162.28" width="3.00" shape="24.89,205.67 24.41,224.40 10.02,366.88"/>
    </edge>
    <edge id="-7502" from="-59291" to="-59275" priority="-1" shape="559.83,193.13 568.51,290.95">
        <lane id="-7502_0" index="0" speed="13.89" length="98.20" width="3.00" shape="570.29,192.20 578.97,290.02"/>
        <lane id="-7502_1" index="1" speed="13.89" length="98.20" width="3.00" shape="567.31,192.47 575.98,290.29"/>
        <lane id="-7502_2" index="2" speed="13.89" length="98.20" width="3.00" shape="564.32,192.73 572.99,290.55"/>
        <lane id="-7502_3" index="3" speed="13.89" length="98.20" width="3.00" shape="561.33,193.00 570.00,290.82"/>
    </edge>
    <edge id="-7508" from="-59324" to="-59280" priority="-1" shape="40.65,40.55 188.42,44.97">
        <lane id="-7508_0" index="0" speed="13.89" length="147.83" width="3.00" shape="40.97,30.05 188.74,34.47"/>
        <lane id="-7508_1" index="1" speed="13.89" length="147.83" width="3.00" shape="40.88,33.05 188.65,37.47"/>
        <lane id="-7508_2" index="2" speed="13.89" length="147.83" width="3.00" shape="40.79,36.05 188.56,40.47"/>
        <lane id="-7508_3" index="3" speed="13.89" length="147.83" width="3.00" shape="40.70,39.05 188.47,43.47"/>
    </edge>
    <edge id="-7664" from="-59271" to="-59432" priority="-1" shape="20.45,380.68 131.47,386.88 132.21,386.87 164.56,384.69">
        <lane id="-7664_0" index="0" speed="13.89" length="143.35" width="3.00" shape="21.03,370.19 132.05,376.39 131.83,376.38 163.52,374.24"/>
        <lane id="-7664_1" index="1" speed="13.89" length="143.35" width="3.00" shape="20.86,373.19 131.89,379.39 163.69,377.23"/>
        <lane id="-7664_2" index="2" speed="13.89" length="143.35" width="3.00" shape="20.70,376.18 131.72,382.39 132.04,382.38 163.85,380.23"/>
        <lane id="-7664_3" index="3" speed="13.89" length="143.35" width="3.00" shape="20.53,379.18 131.55,385.38 132.15,385.37 164.02,383.22"/>
    </edge>
    <edge id="-7673_1" from="-59432" to="-59277" priority="-1" shape="164.56,384.69 241.87,379.47">
        <lane id="-7673_1_0" index="0" speed="13.89" length="77.19" width="3.00" shape="164.16,374.19 241.17,369.00"/>
        <lane id="-7673_1_1" index="1" speed="13.89" length="77.19" width="3.00" shape="164.36,377.19 241.37,371.99"/>
        <lane id="-7673_1_2" index="2" speed="13.89" length="77.19" width="3.00" shape="164.56,380.18 241.57,374.98"/>
        <lane id="-7673_1_3" index="3" speed="13.89" length="77.19" width="3.00" shape="164.76,383.17 241.77,377.98"/>
    </edge>
    <edge id="-7673_2" from="-59277" to="-59433" priority="-1" shape="255.84,378.53 307.87,375.02">
        <lane id="-7673_2_0" index="0" speed="13.89" length="52.15" width="3.00" shape="255.13,368.05 307.16,364.54"/>
        <lane id="-7673_2_1" index="1" speed="13.89" length="52.15" width="3.00" shape="255.34,371.05 307.37,367.54"/>
        <lane id="-7673_2_2" index="2" speed="13.89" length="52.15" width="3.00" shape="255.54,374.04 307.57,370.53"/>
        <lane id="-7673_2_3" index="3" speed="13.89" length="52.15" width="3.00" shape="255.74,377.03 307.77,373.52"/>
    </edge>
    <edge id="-7682" from="-59434" to="-59275" priority="-1" shape="459.63,328.28 507.56,312.42 568.95,304.26">
        <lane id="-7682_0" index="0" speed="13.89" length="113.55" width="3.00" shape="456.33,318.31 505.20,302.15 567.57,293.86"/>
        <lane id="-7682_1" index="1" speed="13.89" length="113.55" width="3.00" shape="457.27,321.16 505.88,305.08 567.97,296.83"/>
        <lane id="-7682_2" index="2" speed="13.89" length="113.55" width="3.00" shape="458.22,324.01 506.55,308.02 568.36,299.80"/>
        <lane id="-7682_3" index="3" speed="13.89" length="113.55" width="3.00" shape="459.16,326.86 507.23,310.96 568.76,302.78"/>
    </edge>
    <edge id="-7689" from="-59282" to="-59435" priority="-1" shape="352.19,364.99 381.12,447.19 381.35,447.75 381.63,448.28 381.97,448.78 382.35,449.24 428.42,499.68">
        <lane id="-7689_0" index="0" speed="13.89" length="155.29" width="3.00" shape="362.09,361.50 390.67,442.71 390.82,442.94 436.07,492.48"/>
        <lane id="-7689_1" index="1" speed="13.89" length="155.29" width="3.00" shape="359.26,362.50 387.94,443.99 388.40,444.74 433.86,494.51"/>
        <lane id="-7689_2" index="2" speed="13.89" length="155.29" width="3.00" shape="356.43,363.50 385.36,445.69 385.42,445.83 385.49,445.97 385.58,446.09 385.75,446.29 431.64,496.53"/>