<?xml version='1.0' encoding='UTF-8'?>
<edges>
  <edge id="-7467" from="-59277" to="-59288" numLanes="4" width="3.0" shape="-46.785030,57.686780 -52.863994,-22.650362 -52.893693,-22.945609 -60.399270,-82.684153 "/>
  <edge id="-7472" from="-59435" to="-59286" numLanes="4" width="3.0" shape="127.727940,191.781310 136.421876,201.298482 137.058988,201.900925 179.130010,236.222537 204.601578,291.406540 "/>
  <edge id="-7478" from="-59288" to="-59445" numLanes="4" width="3.0" shape="-59.659427,-83.612741 0.012953,-89.618633 65.760020,-96.235586 105.632911,-100.248328 "/>
  <edge id="-7495" from="-59437" to="-59286" numLanes="4" width="3.0" shape="50.663962,325.011109 162.512930,323.716885 163.121651,323.678841 163.723365,323.579195 164.311853,323.418978 164.881036,323.199846 209.024066,303.573995 "/>
  <edge id="-7499" from="-59439" to="-59271" numLanes="4" width="3.0" shape="-277.299355,-102.264616 -277.783516,-83.593618 -292.168221,58.833115 "/>
  <edge id="-7502" from="-59291" to="-59275" numLanes="4" width="3.0" shape="259.142435,-114.763003 267.815838,-16.944101 "/>
  <edge id="-7508" from="-59324" to="-59280" numLanes="4" width="3.0" shape="-260.038126,-267.345696 -112.270261,-262.925665 "/>
  <edge id="-7664" from="-59271" to="-59432" numLanes="4" width="3.0" shape="-280.247500,72.781646 -169.221724,78.983089 -168.483051,78.978806 -136.133065,76.795299 "/>
  <edge id="-7682" from="-59434" to="-59275" numLanes="4" width="3.0" shape="158.936472,20.384101 206.872386,4.528483 268.262227,-3.631377 "/>
  <edge id="-7689" from="-59282" to="-59435" numLanes="4" width="3.0" shape="51.496421,57.094322 80.427826,139.294032 80.656117,139.851552 80.939167,140.383368 81.274121,140.884118 81.657603,141.348754 127.727949,191.781319 "/>
  <edge id="-7697" from="-59319" to="-59436" numLanes="4" width="3.0" shape="-288.477758,308.439135 -154.292370,320.045303 "/>
  <edge id="-7705" from="-59436" to="-59437" numLanes="4" width="3.0" shape="-154.292420,320.045297 -79.757071,326.492756 -79.170511,326.514677 50.664020,325.011108 "/>
  <edge id="-7709" from="-59286" to="-59322" numLanes="4" width="3.0" shape="221.895486,297.606688 298.871249,260.434985 "/>
  <edge id="-7716" from="-59438" to="-59319" numLanes="4" width="3.0" shape="-297.149685,190.807789 -300.692534,294.657749 "/>
  <edge id="-7719" from="-59271" to="-59438" numLanes="4" width="3.0" shape="-293.137172,73.191958 -297.149684,190.807787 "/>
  <edge id="-7724" from="-59324" to="-59439" numLanes="4" width="3.0" shape="-273.035048,-266.710193 -277.299355,-102.264617 "/>
  <edge id="-7733" from="-59288" to="-59280" numLanes="4" width="3.0" shape="-63.598500,-97.357898 -91.677658,-186.752817 -98.489480,-262.280937 "/>
  <edge id="-7741" from="-59445" to="-59291" numLanes="4" width="3.0" shape="105.632889,-100.248327 160.760784,-105.796101 258.136648,-115.594867 "/>
  <edge id="-7750" from="-59280" to="-59450" numLanes="4" width="3.0" shape="-97.471074,-263.528037 92.829316,-284.789476 "/>
  <edge id="-7755" from="-59450" to="-59326" numLanes="4" width="3.0" shape="92.829234,-284.789467 239.329530,-301.155273 "/>
  <edge id="-7757" from="-59326" to="-59291" numLanes="4" width="3.0" shape="240.359249,-300.324124 257.823211,-128.622512 "/>
  <edge id="-7761" from="-59275" to="-59451" numLanes="4" width="3.0" shape="269.191412,-2.901408 283.975269,134.928021 "/>
  <edge id="-7766" from="-59451" to="-59322" numLanes="4" width="3.0" shape="283.975268,134.928015 295.853314,245.667821 "/>
  <edge id="-7461_1" from="-59433" to="-59282" numLanes="4" width="3.0" shape="7.179256,67.123228 19.555923,66.288010 20.056901,66.232987 20.551493,66.136114 21.036211,65.998074 50.070500,56.394125 "/>
  <edge id="-7461_2" from="-59282" to="-59434" numLanes="4" width="3.0" shape="63.362195,51.997544 158.936506,20.384091 "/>
  <edge id="-7673_1" from="-59432" to="-59277" numLanes="4" width="3.0" shape="-136.133092,76.795301 -58.819838,71.577292 "/>
  <edge id="-7673_2" from="-59277" to="-59433" numLanes="4" width="3.0" shape="-44.851647,70.634592 7.179273,67.123226 "/>
</edges>
