<?xml version='1.0' encoding='UTF-8'?>
<nodes>
  <node id="-59271" x="-286.901992" y="66.400601" shape="-292.168221,58.833116 -280.228959,60.038948 -279.578272,60.800322 -280.247500,72.781646 -281.144150,73.601104 -293.137172,73.191958 -292.898503,66.196028 -292.871623,65.797685 -292.168221,58.833116 -292.168221,58.833116"/>
  <node id="-59275" x="274.41064" y="-10.501385" shape="279.768942,-18.003958 281.122971,-4.181210 269.191412,-2.901408 268.262228,-3.631376 266.681109,-15.526756 267.815838,-16.944100 279.768942,-18.003958 279.768942,-18.003958"/>
  <node id="-59277" x="-52.239759" y="65.11954" shape="-46.785030,57.686779 -45.659643,58.661826 -44.851647,70.634592 -58.819839,71.577291 -59.627902,59.604529 -58.750823,58.592209 -46.785030,57.686779 -46.785030,57.686779"/>
  <node id="-59280" x="-105.093998" y="-268.713692" shape="-98.803491,-275.453835 -97.471073,-263.528037 -98.489480,-262.280937 -110.440971,-261.203041 -112.270260,-262.925665 -111.911477,-274.920300 -98.803491,-275.453835 -98.803491,-275.453835"/>
  <node id="-59282" x="54.832088" y="48.499363" shape="59.593719,40.604626 63.362195,51.997545 62.815769,53.110310 51.496421,57.094322 50.070500,56.394126 46.301962,45.001228 52.947850,42.802904 59.593719,40.604626 59.593719,40.604626"/>
  <node id="-59286" x="212.982857" y="295.247653" shape="215.496937,286.377512 216.677246,286.800672 221.895486,297.606687 215.591977,300.650661 215.420385,300.730212 209.024066,303.573995 204.149010,292.608877 204.601577,291.406540 215.496937,286.377512 215.496937,286.377512"/>
  <node id="-59288" x="-67.22509" y="-88.881587" shape="-63.598500,-97.357898 -60.861129,-95.552419 -59.659427,-83.612741 -60.399270,-82.684153 -72.305664,-81.188228 -75.047024,-93.761889 -63.598500,-97.357898 -63.598500,-97.357898"/>
  <node id="-59291" x="264.500737" y="-122.265576" shape="269.761617,-129.836781 270.469940,-122.872710 270.477289,-122.795505 271.095539,-115.822861 259.142435,-114.763003 258.136647,-115.594867 256.935175,-127.534568 257.823210,-128.622512 269.761617,-129.836781 269.761617,-129.836781"/>
  <node id="-59319" x="-294.934689" y="301.85825" shape="-300.692534,294.657748 -288.699511,295.066891 -287.443696,296.483771 -288.477758,308.439134 -300.187521,307.537381 -301.134304,306.087612 -300.692534,294.657748 -300.692534,294.657748"/>
  <node id="-59322" x="302.565638" y="251.988003" shape="307.784875,244.388031 308.531418,251.348108 308.536131,251.393685 308.565227,251.685981 305.431490,257.265713 305.198311,257.379573 305.174758,257.391011 298.871249,260.434984 293.653009,249.628969 295.853314,245.667821 307.784875,244.388031 307.784875,244.388031"/>
  <node id="-59324" x="-266.855605" y="-273.552304" shape="-270.529191,-279.750256 -259.679343,-279.340331 -260.038126,-267.345696 -261.039080,-266.399120 -273.035048,-266.710193 -272.853589,-273.707840 -272.835554,-274.042416 -272.455788,-278.676016 -270.529191,-279.750256 -270.529191,-279.750256"/>
  <node id="-59326" x="245.620129" y="-307.895329" shape="251.018935,-314.454671 252.297656,-301.538393 240.359249,-300.324124 239.329530,-301.155273 237.997276,-313.081089 239.073678,-313.309758 250.183179,-314.386183 251.018935,-314.454671 251.018935,-314.454671"/>
  <node id="-59432" x="-136.537124" y="70.80892"/>
  <node id="-59433" x="6.775275" y="61.136843"/>
  <node id="-59434" x="157.052268" y="14.687631"/>
  <node id="-59435" x="132.157846" y="187.734591"/>
  <node id="-59436" x="-153.775339" y="314.06762"/>
  <node id="-59437" x="50.59454" y="319.011511"/>
  <node id="-59438" x="-291.153173" y="191.01236"/>
  <node id="-59439" x="-271.301371" y="-102.109081"/>
  <node id="-59445" x="105.032116" y="-106.218174"/>
  <node id="-59450" x="92.163107" y="-290.752375"/>
  <node id="-59451" x="289.941048" y="134.28812"/>
</nodes>
