<?xml version='1.0' encoding='UTF-8'?>
<edges>
  <edge id="17409457" from="180238359" to="Custom175" numLanes="1" width="4.0" shape="-397.829814,493.565458 -408.275620,489.243145 -411.644171,487.064332 -413.620267,484.393160 -422.659040,469.384507 "/>
  <edge id="17413402" from="351102437" to="Custom176" numLanes="1" width="4.0" shape="861.109939,445.102610 863.022028,446.578145 896.992420,472.784213 904.811234,479.056524 915.356132,487.511449 917.103848,488.911409 "/>
  <edge id="-17413402" to="351102437" from="Custom176" numLanes="1" width="4.0" shape="917.103848,488.911409 915.356132,487.511449 904.811234,479.056524 896.992420,472.784213 863.022028,446.578145 861.109939,445.102610 "/>
  <edge id="17413962" from="180265229" to="180256006" numLanes="1" width="4.0" shape="-202.725884,571.645735 -203.067120,480.536063 "/>
  <edge id="17414110" from="351102439" to="Custom177" numLanes="1" width="4.0" shape="740.680499,598.819714 742.508779,603.359758 743.911298,606.847920 744.043776,638.239979 744.123949,659.267595 744.123968,659.271553 744.130977,660.481705 "/>
  <edge id="17418014" from="1878419990" to="180283111" numLanes="1" width="4.0" shape="850.382500,140.119581 849.803304,179.620010 "/>
  <edge id="-17418014" to="1878419990" from="180283111" numLanes="1" width="4.0" shape="849.803304,179.620010 850.382500,140.119581 "/>
  <edge id="17423583" from="Custom178" to="180270933" numLanes="1" width="4.0" shape="845.489257,640.115163 845.349604,598.733344 846.141231,594.146466 "/>
  <edge id="17424859" from="180251830" to="1433738503" numLanes="1" width="4.0" shape="652.765141,490.279158 657.004218,490.328721 739.489794,491.334447 "/>
  <edge id="17425692" from="1433738491" to="180251831" numLanes="1" width="4.0" shape="817.778590,389.567636 657.452106,386.602655 653.334273,386.525374 "/>
  <edge id="17429659" from="180345951" to="180330476" numLanes="1" width="4.0" shape="-115.718774,308.290023 -211.690796,307.930680 -215.254576,309.139785 -218.453730,311.479206 -227.651770,320.828686 "/>
  <edge id="-17429659" to="180345951" from="180330476" numLanes="1" width="4.0" shape="-227.651770,320.828686 -218.453730,311.479206 -215.254576,309.139785 -211.690796,307.930680 -115.718774,308.290023 "/>
  <edge id="177289753" from="1877436657" to="1877436677" numLanes="1" width="4.0" shape="-115.602590,328.770316 -160.420830,328.953839 -160.586635,328.961405 -160.751243,328.982693 -164.767580,329.672624 -164.940667,329.710317 -165.109740,329.763178 -165.273472,329.830792 -168.170509,331.180261 -168.333847,331.265717 -168.488622,331.365849 -168.633520,331.479806 -171.739082,334.162836 -171.820174,334.236878 -194.726144,356.334804 "/>
  <edge id="177388574" from="7516461981" to="1878420117" numLanes="1" width="4.0" shape="103.600187,598.334347 103.445211,584.515900 "/>
  <edge id="177388584" from="1878419552" to="1878419317" numLanes="1" width="4.0" shape="376.903261,587.788525 376.522883,635.757616 376.531518,635.959800 376.560541,636.160076 376.609653,636.356393 376.678354,636.546743 376.765938,636.729176 376.871509,636.901824 376.993987,637.062920 377.132117,637.210815 377.284486,637.343993 451.215450,695.637646 "/>
  <edge id="177388595" from="1878419788" to="1878419990" numLanes="1" width="4.0" shape="654.579512,135.989733 846.414580,138.076333 "/>
  <edge id="177388596" from="1878420642" to="1878419937" numLanes="1" width="4.0" shape="652.934857,440.505856 657.056513,440.555080 778.958512,442.022126 "/>
  <edge id="177388609" from="1878420010" to="1878420561" numLanes="1" width="4.0" shape="653.121871,340.863113 657.308331,340.918095 858.120672,343.532071 "/>
  <edge id="177388612" from="1878420473" to="5005642371" numLanes="1" width="4.0" shape="786.270930,543.371428 787.228844,543.377843 847.053457,543.753637 "/>
  <edge id="435394418" from="4333071458" to="180270921" numLanes="2" width="3.5" shape="-47.870008,541.351791 -47.586044,574.743185 "/>
  <edge id="-435394418" to="4333071458" from="180270921" numLanes="2" width="3.5" shape="-47.586044,574.743185 -47.870008,541.351791 "/>
  <edge id="435394419" from="4333071456" to="180297772" numLanes="2" width="3.5" shape="-52.879292,130.004226 -52.569262,171.211728 "/>
  <edge id="-435394419" to="4333071456" from="180297772" numLanes="2" width="3.5" shape="-52.569262,171.211728 -52.879292,130.004226 "/>
  <edge id="435394420" from="180270921" to="Custom179" numLanes="2" width="3.5" shape="-47.494957,585.742808 -47.099790,634.209470 "/>
  <edge id="-435394420" to="180270921" from="Custom179" numLanes="2" width="3.5" shape="-47.099790,634.209470 -47.494957,585.742808 "/>
  <edge id="435394421" from="180254922" to="4333071455" numLanes="2" width="3.5" shape="-53.993876,-17.494916 -53.773531,14.206872 "/>
  <edge id="-435394421" to="180254922" from="4333071455" numLanes="2" width="3.5" shape="-53.773531,14.206872 -53.993876,-17.494916 "/>
  <edge id="435394428" from="4333071455" to="4333071456" numLanes="3" width="3.5" shape="-57.258745,16.233876 -56.394441,128.031342 "/>
  <edge id="-435394428" to="4333071455" from="4333071456" numLanes="1" width="3.5" shape="-56.394441,128.031342 -57.258745,16.233876 "/>
  <edge id="511808891" from="180270933" to="5005642371" numLanes="1" width="4.0" shape="848.106450,586.033025 849.199662,582.515458 849.250293,582.317318 849.280424,582.115043 849.289742,581.910749 849.065989,541.742535 "/>
  <edge id="-582885998" to="351102436" from="1433738491" numLanes="1" width="4.0" shape="859.714641,424.189667 854.350328,419.607727 826.483790,395.815055 "/>
  <edge id="583523162" from="10782118915" to="1878419392" numLanes="1" width="4.0" shape="-254.001922,580.142067 -253.991932,582.456291 "/>
  <edge id="723804402" from="6788493624" to="6788493625" numLanes="1" width="4.0" shape="5.331140,551.499699 5.307093,558.716596 "/>
  <edge id="723804404" from="6788493619" to="6788493618" numLanes="1" width="4.0" shape="-30.552304,528.409683 -41.010281,528.666220 "/>
  <edge id="723804406" from="6788493628" to="6788493629" numLanes="1" width="4.0" shape="-20.003017,568.256667 -14.926839,568.170691 "/>
  <edge id="723804407" from="6788493622" to="6788493630" numLanes="1" width="4.0" shape="-9.430254,541.229016 -9.054915,562.049861 "/>
  <edge id="723804408" from="6788493618" to="4333071458" numLanes="3" width="3.5" shape="-51.425407,534.866989 -51.386911,539.381706 "/>
  <edge id="-723804408" to="6788493618" from="4333071458" numLanes="1" width="3.5" shape="-51.386911,539.381706 -51.425407,534.866989 "/>
  <edge id="847956785" from="7912620584" to="Custom180" numLanes="1" width="4.0" shape="822.467539,593.326090 822.403884,598.372076 821.902118,639.722334 "/>
  <edge id="848283003" from="7915688581" to="7915688582" numLanes="1" width="4.0" shape="-55.768017,465.214730 -106.235799,465.631331 "/>
  <edge id="848826495" from="7919890305" to="7919890306" numLanes="1" width="4.0" shape="-44.772647,215.440585 -33.414439,214.611513 "/>
  <edge id="848826496" from="7919890306" to="7919890307" numLanes="1" width="4.0" shape="-25.530503,214.243225 -3.874043,213.799296 "/>
  <edge id="850482428" from="7934446901" to="Custom181" numLanes="1" width="4.0" shape="394.764846,538.607416 392.499621,539.273024 389.238631,540.070313 385.683039,540.770964 "/>
  <edge id="850482429" from="7934446907" to="7934446901" numLanes="1" width="4.0" shape="406.100212,580.061149 405.955795,555.329665 405.955488,555.304398 405.772939,545.424068 405.761240,545.241886 405.732977,545.061530 405.688387,544.884502 405.111186,542.967107 405.041333,542.772231 404.951710,542.585620 404.843277,542.409273 403.777140,540.861122 403.634473,540.677748 403.471502,540.512156 403.303406,540.360124 "/>
  <edge id="867583780" from="8086668434" to="Custom182" numLanes="1" width="4.0" shape="653.932001,616.336197 654.835458,616.773768 665.228558,621.799058 "/>
  <edge id="867650189" from="8087434817" to="8087391413" numLanes="1" width="4.0" shape="-243.977062,466.325850 -260.778438,471.916571 -287.538000,477.687148 -318.104989,479.977561 -321.092054,479.129601 "/>
  <edge id="869999684" from="8105958040" to="1878419350" numLanes="1" width="4.0" shape="-47.605327,-92.743710 -12.716150,-91.602441 -6.485569,-88.907073 -4.919465,-83.011743 -2.981176,-28.017458 "/>
  <edge id="887513071" from="8251681025" to="8251681032" numLanes="1" width="4.0" shape="757.797326,552.652785 752.615927,548.274367 727.447209,526.992191 727.289665,526.871842 727.120980,526.767683 726.942811,526.680736 726.756910,526.611855 726.565102,526.561718 726.369273,526.530817 726.171347,526.519455 725.973268,526.527745 722.870212,526.812190 722.680715,526.838753 722.494623,526.883303 722.313640,526.945434 722.139423,527.024576 721.973567,527.120005 721.817589,527.230847 721.672919,527.356088 721.540879,527.494582 705.684800,545.804802 704.157475,547.511357 704.020171,547.682868 703.902507,547.868405 703.805904,548.065728 703.731527,548.272457 702.980330,550.786019 702.934809,550.969553 702.906825,551.156566 702.896628,551.345386 702.745327,574.062358 702.752462,574.244979 702.776236,574.426186 702.816453,574.604466 702.872777,574.778331 702.944736,574.946328 704.416174,577.989334 704.459899,579.764114 704.548367,583.699166 "/>
  <edge id="887513072" from="8251681034" to="8251681037" numLanes="1" width="4.0" shape="586.408093,590.285996 586.374313,597.063742 586.300504,604.397970 586.308453,604.597362 586.336232,604.794969 586.383565,604.988824 586.449979,605.176998 586.534815,605.357617 586.637228,605.528883 589.004470,609.073342 "/>
  <edge id="887513073" from="8251681037" to="Custom183" numLanes="1" width="4.0" shape="589.266224,609.910077 589.770917,638.695879 589.782751,638.880861 589.811660,639.063953 589.857396,639.243582 589.919565,639.418205 589.997634,639.586323 590.090932,639.746491 590.198658,639.897333 591.381007,641.400426 591.508978,641.547717 591.650692,641.681838 591.804800,641.801511 591.969837,641.905598 592.144231,641.993108 592.326322,642.063208 592.514377,642.115231 592.706607,642.148682 592.901181,642.163242 598.853362,642.317389 "/>
  <edge id="930260913" from="8625852586" to="Custom184" numLanes="1" width="4.0" shape="495.432648,581.098455 494.999060,551.276864 496.416042,548.741359 511.342612,547.336699 "/>
  <edge id="952271325" from="8814031177" to="8814031180" numLanes="1" width="4.0" shape="25.573992,-27.799723 25.654453,-34.621970 25.742909,-42.122134 26.078859,-43.087500 27.056088,-43.387200 85.791853,-41.887714 86.836087,-41.513990 87.192435,-40.463700 87.260262,-32.871075 87.307288,-27.988313 "/>
  <edge id="1065094419" from="1433738503" to="351102438" numLanes="1" width="4.0" shape="748.456065,493.448221 777.823477,516.139339 783.362714,520.420735 "/>
  <edge id="1222298761" from="1878419461" to="1433738503" numLanes="1" width="4.0" shape="710.175773,538.840024 741.334686,499.244938 743.760172,496.159249 "/>
  <edge id="1231913401" from="11425730083" to="11425730084" numLanes="1" width="4.0" shape="695.219262,583.561686 695.258094,579.736132 695.630886,541.320404 "/>
  <edge id="1234648019" from="1878420566" to="180234328" numLanes="2" width="4.0" shape="655.323136,37.306818 655.409686,12.950702 "/>
  <edge id="1234648023" from="8087391413" to="180261931" numLanes="1" width="4.0" shape="-321.092970,477.504366 -257.416957,459.350634 -256.501517,459.291539 "/>
  <edge id="1276494568" from="351102437" to="351102436" numLanes="3" width="3.5" shape="862.634844,437.502272 866.590031,432.527285 "/>
  <edge id="-1276494568" to="351102437" from="351102436" numLanes="1" width="3.5" shape="866.590031,432.527285 862.634844,437.502272 "/>
  <edge id="17412261_1" from="180254922" to="1878419350" numLanes="1" width="4.0" shape="-47.002847,-24.433435 -4.839291,-24.066212 "/>
  <edge id="-17412261_1" to="180254922" from="1878419350" numLanes="1" width="4.0" shape="-4.839291,-24.066212 -47.002847,-24.433435 "/>
  <edge id="17413400_1" from="180261931" to="8087434817" numLanes="1" width="4.0" shape="-248.954246,458.792729 -244.532817,461.620192 -242.550289,462.741349 "/>
  <edge id="-17413400_1" to="180261931" from="8087434817" numLanes="1" width="4.0" shape="-242.550289,462.741349 -244.532817,461.620192 -248.954246,458.792729 "/>
  <edge id="17413400_2" from="8087434817" to="180256006" numLanes="1" width="4.0" shape="-235.150869,466.399727 -231.459660,468.071074 -219.598518,472.264211 -208.934602,475.251596 "/>
  <edge id="-17413400_2" to="8087434817" from="180256006" numLanes="1" width="4.0" shape="-208.934602,475.251596 -219.598518,472.264211 -231.459660,468.071074 -235.150869,466.399727 "/>
  <edge id="17414708_1" from="180270921" to="1877436618" numLanes="1" width="4.0" shape="-57.742036,579.147716 -73.373724,582.924835 -98.720760,583.140595 -104.783191,583.189804 "/>
  <edge id="17415082_1" from="7516461982" to="180270925" numLanes="1" width="4.0" shape="152.693124,597.873958 152.587377,585.095164 "/>
  <edge id="17415204_1" from="180270928" to="1878419220" numLanes="1" width="4.0" shape="351.161374,576.473065 350.997818,537.389947 "/>
  <edge id="-17415204_1" to="180270928" from="1878419220" numLanes="1" width="4.0" shape="350.997818,537.389947 351.161374,576.473065 "/>
  <edge id="17415447_1" from="180276430" to="1877436774" numLanes="1" width="4.0" shape="-161.428793,381.632008 -115.324405,382.013681 "/>
  <edge id="-17415447_1" to="180276430" from="1877436774" numLanes="1" width="4.0" shape="-115.324405,382.013681 -161.428793,381.632008 "/>
  <edge id="17415522_1" from="180254925" to="180276857" numLanes="1" width="4.0" shape="44.905227,-19.582024 47.420393,172.818350 "/>
  <edge id="17415833_1" from="180270932" to="1878419317" numLanes="1" width="4.0" shape="541.436164,590.078376 488.805932,653.638487 458.589266,689.839569 456.624324,692.191772 "/>
  <edge id="17415833_2" from="1878419317" to="180279231" numLanes="1" width="4.0" shape="451.574054,698.501712 432.675422,723.156574 "/>
  <edge id="1276494570_1" from="180251835" to="180283111" numLanes="1" width="4.0" shape="657.029641,184.745001 658.679085,184.760836 842.699786,186.548676 845.700878,186.578932 "/>
  <edge id="-1276494570_1" to="180251835" from="180283111" numLanes="1" width="4.0" shape="845.700878,186.578932 842.699786,186.548676 658.679085,184.760836 657.029641,184.745001 "/>
  <edge id="17414708_3" from="180237105" to="Custom185" numLanes="1" width="4.0" shape="-410.891115,585.101273 -421.765496,583.205486 -435.825623,580.407312 -435.838297,580.404832 -447.038003,578.251011 -447.223323,578.224297 -447.410330,578.215030 -456.399928,578.190878 "/>
  <edge id="17418723_1" from="180237105" to="10782118919" numLanes="1" width="4.0" shape="-406.855152,583.792778 -406.691414,581.704547 "/>
  <edge id="-17418723_1" to="180237105" from="10782118919" numLanes="1" width="4.0" shape="-406.691414,581.704547 -406.855152,583.792778 "/>
  <edge id="17418723_2" from="10782118919" to="180238359" numLanes="1" width="4.0" shape="-406.066458,573.728995 -404.568605,554.601276 -400.487388,528.474519 -395.596541,500.881485 "/>
  <edge id="-17418723_2" to="10782118919" from="180238359" numLanes="1" width="4.0" shape="-395.596541,500.881485 -400.487388,528.474519 -404.568605,554.601276 -406.066458,573.728995 "/>
  <edge id="1159432240_1" from="Custom186" to="10782118919" numLanes="1" width="4.0" shape="-456.494543,575.916051 -415.533030,577.661612 -410.923988,578.722700 "/>
  <edge id="177388601_1" from="Custom187" to="180302488" numLanes="1" width="4.0" shape="-403.561110,321.892430 -392.627184,319.719282 "/>
  <edge id="177388601_2" from="180302488" to="1878420765" numLanes="1" width="4.0" shape="-384.719778,318.101280 -314.136613,303.248647 "/>
  <edge id="17419801_1" from="180302488" to="1878420438" numLanes="1" width="4.0" shape="-388.127900,320.859521 -379.306258,356.310636 "/>
  <edge id="-17419801_1" to="180302488" from="1878420438" numLanes="1" width="4.0" shape="-379.306258,356.310636 -388.127900,320.859521 "/>
  <edge id="17420033_1" from="180251832" to="180292876" numLanes="1" width="4.0" shape="653.140462,288.351517 658.146848,288.408696 846.250119,290.657111 "/>
  <edge id="1032477262_1" from="Custom188" to="351102442" numLanes="3" width="3.5" shape="549.231404,828.973812 550.283352,827.675427 "/>
  <edge id="-1032477262_1" to="Custom188" from="351102442" numLanes="1" width="3.5" shape="550.283352,827.675427 549.231404,828.973812 "/>
  <edge id="17420899_1" from="351102442" to="180279231" numLanes="1" width="4.0" shape="545.874599,816.376861 509.695125,787.034647 509.681667,787.023828 436.203978,728.476445 "/>
  <edge id="17420899_2" from="180279231" to="180253556" numLanes="1" width="4.0" shape="429.971326,723.480019 260.867566,587.093674 "/>
  <edge id="1222298760_2" from="180270933" to="Custom189" numLanes="1" width="4.0" shape="848.886892,589.710474 859.063482,589.858910 908.026673,590.586610 913.229345,590.667624 939.791906,591.047377 "/>
  <edge id="-1222298760_2" to="180270933" from="Custom189" numLanes="1" width="4.0" shape="939.791906,591.047377 913.229345,590.667624 908.026673,590.586610 859.063482,589.858910 848.886892,589.710474 "/>
  <edge id="17423596_1" from="180270930" to="1878419216" numLanes="1" width="4.0" shape="449.431031,577.631486 449.566119,538.368531 "/>
  <edge id="-17423596_1" to="180270930" from="1878419216" numLanes="1" width="4.0" shape="449.566119,538.368531 449.431031,577.631486 "/>
  <edge id="17425998_1" from="180276430" to="1877436677" numLanes="1" width="4.0" shape="-172.308931,380.603149 -173.630305,380.272527 -178.122218,377.956449 -193.365809,363.355090 "/>
  <edge id="-17425998_1" to="180276430" from="1877436677" numLanes="1" width="4.0" shape="-193.365809,363.355090 -178.122218,377.956449 -173.630305,380.272527 -172.308931,380.603149 "/>
  <edge id="177289738_3" from="180345951" to="Custom190" numLanes="1" width="4.0" shape="-109.616929,304.357579 -109.300059,291.999512 "/>
  <edge id="17425998_2" from="1877436677" to="180330476" numLanes="1" width="4.0" shape="-199.143349,357.821552 -227.505334,330.660259 "/>
  <edge id="-17425998_2" to="1877436677" from="180330476" numLanes="1" width="4.0" shape="-227.505334,330.660259 -199.143349,357.821552 "/>
  <edge id="17425998_3" from="180330476" to="1878419934" numLanes="1" width="4.0" shape="-235.624571,323.246882 -240.073152,319.512471 -242.284561,318.570750 -244.230014,318.258229 "/>
  <edge id="-17425998_3" to="180330476" from="1878419934" numLanes="1" width="4.0" shape="-244.230014,318.258229 -242.284561,318.570750 -240.073152,319.512471 -235.624571,323.246882 "/>
  <edge id="17414708_2" from="1877436618" to="180270920" numLanes="1" width="4.0" shape="-112.783848,583.256617 -163.004460,583.687752 "/>
  <edge id="17429661_1" from="180270920" to="10782118916" numLanes="1" width="4.0" shape="-167.045834,581.722447 -167.081913,579.263747 "/>
  <edge id="-17429661_1" to="180270920" from="10782118916" numLanes="1" width="4.0" shape="-167.081913,579.263747 -167.045834,581.722447 "/>
  <edge id="1159432240_2" from="180265229" to="10782118916" numLanes="1" width="4.0" shape="-200.690395,577.611675 -171.125408,577.305546 "/>
  <edge id="17429453_3" from="1878419809" to="1878419934" numLanes="1" width="4.0" shape="-276.103576,338.245103 -269.392714,335.066433 -269.303924,335.021641 -260.591584,330.351232 -260.473249,330.282484 -253.133957,325.675742 -252.903260,325.506804 -248.583078,321.841169 -246.715147,320.616822 -245.863142,320.369558 "/>
  <edge id="17429777_1" from="1878419809" to="180345194" numLanes="1" width="4.0" shape="-280.906892,342.609667 -278.318163,348.920027 "/>
  <edge id="17429777_2" from="180345194" to="180261934" numLanes="1" width="4.0" shape="-275.307642,356.319437 -253.318933,410.815397 -253.242640,410.982038 -251.272168,414.811888 -251.190537,414.955617 -251.097317,415.092115 -248.815098,418.154029 -248.743677,418.244306 -226.914419,444.261758 -226.727031,444.456665 -200.845483,467.966581 -196.319363,472.608090 -195.608545,473.503319 "/>
  <edge id="1202710343_1" from="180330476" to="180345194" numLanes="1" width="4.0" shape="-237.121155,326.972638 -244.253052,332.822968 -252.858853,339.052077 -262.308944,344.041737 -272.109512,348.407150 "/>
  <edge id="1202710343_2" from="180345194" to="180345193" numLanes="1" width="4.0" shape="-279.370164,351.184084 -291.038041,354.941614 "/>
  <edge id="17429779_1" from="180261931" to="1878419952" numLanes="1" width="4.0" shape="-251.615461,451.246810 -253.318213,448.222080 -253.427969,448.048590 -277.438006,414.088818 "/>
  <edge id="17429779_2" from="1878419952" to="180345193" numLanes="1" width="4.0" shape="-280.635803,407.527709 -281.140455,405.835024 -291.383025,361.518370 "/>
  <edge id="1024510380_2" from="180270925" to="180253556" numLanes="1" width="4.0" shape="154.553842,581.132320 199.425107,581.663998 244.726155,582.206149 "/>
  <edge id="-1024510380_2" to="180270925" from="180253556" numLanes="1" width="4.0" shape="244.726155,582.206149 199.425107,581.663998 154.553842,581.132320 "/>
  <edge id="1024510380_6" from="180253556" to="180270928" numLanes="1" width="4.0" shape="261.724946,582.408854 344.191163,583.389748 "/>
  <edge id="-1024510380_6" to="180253556" from="180270928" numLanes="1" width="4.0" shape="344.191163,583.389748 261.724946,582.408854 "/>
  <edge id="48378824_1" from="180253556" to="1878420312" numLanes="1" width="4.0" shape="251.709876,575.289935 251.620232,535.517954 "/>
  <edge id="-48378824_1" to="180253556" from="1878420312" numLanes="1" width="4.0" shape="251.620232,535.517954 251.709876,575.289935 "/>
  <edge id="177289738_2" from="1877436774" to="1877436657" numLanes="1" width="4.0" shape="-109.345712,378.018231 -109.573415,334.743342 "/>
  <edge id="177289738_4" from="1877436657" to="180345951" numLanes="1" width="4.0" shape="-109.616624,326.742901 -109.696673,312.293858 "/>
  <edge id="177388571_1" from="Custom191" to="1878420530" numLanes="1" width="4.0" shape="-413.537580,446.821944 -365.162632,434.361207 "/>
  <edge id="177388571_2" from="1878420530" to="1878419952" numLanes="1" width="4.0" shape="-357.375039,432.412387 -284.576103,414.729634 "/>
  <edge id="17419801_3" from="1878420530" to="180296984" numLanes="1" width="4.0" shape="-360.861974,435.317114 -351.395941,476.793578 "/>
  <edge id="-17419801_3" to="1878420530" from="180296984" numLanes="1" width="4.0" shape="-351.395941,476.793578 -360.861974,435.317114 "/>
  <edge id="803549161_1" from="7516461980" to="7516461981" numLanes="1" width="4.0" shape="57.138313,603.609492 97.612157,604.289088 "/>
  <edge id="803549161_2" from="7516461981" to="7516461982" numLanes="1" width="4.0" shape="105.663984,604.318445 146.745465,603.928270 "/>
  <edge id="1024510380_7" from="1878420117" to="180270925" numLanes="1" width="4.0" shape="105.399859,580.554812 146.554397,581.037971 "/>
  <edge id="-1024510380_7" to="1878420117" from="180270925" numLanes="1" width="4.0" shape="146.554397,581.037971 105.399859,580.554812 "/>
  <edge id="177388579_1" from="180234328" to="1878420643" numLanes="1" width="4.0" shape="647.434927,6.914660 601.292437,6.662220 "/>
  <edge id="1024510380_3" from="180270928" to="1878419552" numLanes="1" width="4.0" shape="355.190391,583.520052 374.935234,583.752311 "/>
  <edge id="-1024510380_3" to="180270928" from="1878419552" numLanes="1" width="4.0" shape="374.935234,583.752311 355.190391,583.520052 "/>
  <edge id="48378830_5" from="1878419788" to="1878420566" numLanes="1" width="4.0" shape="650.645607,129.946589 651.142369,85.202441 651.315829,39.292591 "/>
  <edge id="-48378830_5" to="1878419788" from="1878420566" numLanes="1" width="4.0" shape="651.315829,39.292591 651.142369,85.202441 650.645607,129.946589 "/>
  <edge id="48378830_3" from="180251830" to="1878420642" numLanes="1" width="4.0" shape="648.791615,484.232434 648.805440,479.916347 648.933939,442.458072 "/>
  <edge id="-48378830_3" to="180251830" from="1878420642" numLanes="1" width="4.0" shape="648.933939,442.458072 648.805440,479.916347 648.791615,484.232434 "/>
  <edge id="48378830_6" from="1878420642" to="180251831" numLanes="1" width="4.0" shape="648.974165,434.458184 649.222742,396.943563 649.253907,392.449572 "/>
  <edge id="-48378830_6" to="1878420642" from="180251831" numLanes="1" width="4.0" shape="649.253907,392.449572 649.222742,396.943563 648.974165,434.458184 "/>
  <edge id="1065094420_1" from="1433738503" to="1878419937" numLanes="1" width="4.0" shape="750.574848,487.547311 753.281187,484.166875 783.169621,446.821425 "/>
  <edge id="1065094420_3" from="1878419937" to="1433738491" numLanes="1" width="4.0" shape="788.391235,440.297438 820.326715,400.408972 821.926461,398.411014 "/>
  <edge id="1065094420_4" from="1878419338" to="1878419230" numLanes="1" width="4.0" shape="950.133598,238.889766 981.915389,199.048308 985.009336,195.168894 "/>
  <edge id="177388600_1" from="1878419338" to="1878419622" numLanes="1" width="4.0" shape="940.743866,236.636127 856.882808,235.839030 854.021954,235.813878 "/>
  <edge id="177388600_2" from="1878419622" to="1878419855" numLanes="1" width="4.0" shape="846.030633,235.727253 843.487392,235.694475 658.174868,233.270189 653.624090,233.208039 "/>
  <edge id="658575609_1" from="180292876" to="1878419622" numLanes="1" width="4.0" shape="852.254186,284.695347 852.228293,279.391518 852.026003,241.767826 "/>
  <edge id="658575609_2" from="1878419622" to="180283111" numLanes="1" width="4.0" shape="851.980584,233.766755 851.755537,196.111079 851.723914,190.636506 "/>
  <edge id="177388606_1" from="1878420074" to="1878419318" numLanes="1" width="4.0" shape="497.437516,9.034902 496.507536,178.214382 "/>
  <edge id="48378830_4" from="180251831" to="1878420010" numLanes="1" width="4.0" shape="649.261592,381.449696 649.257314,379.956255 649.139378,342.810449 "/>
  <edge id="-48378830_4" to="180251831" from="1878420010" numLanes="1" width="4.0" shape="649.139378,342.810449 649.257314,379.956255 649.261592,381.449696 "/>
  <edge id="48378830_7" from="1878420010" to="180251832" numLanes="1" width="4.0" shape="649.128165,334.810470 649.143709,292.989600 649.144842,290.305769 "/>
  <edge id="-48378830_7" to="1878420010" from="180251832" numLanes="1" width="4.0" shape="649.144842,290.305769 649.143709,292.989600 649.128165,334.810470 "/>
  <edge id="1065094420_2" from="1433738491" to="1878420561" numLanes="1" width="4.0" shape="828.809683,389.841722 831.990593,385.903626 862.307259,348.327150 "/>
  <edge id="177388613_1" from="1878419523" to="1878420453" numLanes="1" width="4.0" shape="101.295674,379.776006 99.720076,181.252769 "/>
  <edge id="177388613_2" from="1878420453" to="1878419915" numLanes="1" width="4.0" shape="99.655681,173.208165 98.095272,-20.083798 "/>
  <edge id="17427279_2" from="180276857" to="1878420453" numLanes="1" width="4.0" shape="53.472868,176.865256 93.688366,177.212013 "/>
  <edge id="-17427279_2" to="180276857" from="1878420453" numLanes="1" width="4.0" shape="93.688366,177.212013 53.472868,176.865256 "/>
  <edge id="17412261_4" from="1878419949" to="180253561" numLanes="1" width="4.0" shape="197.857559,-23.741266 243.260388,-23.077988 "/>
  <edge id="-17412261_4" to="1878419949" from="180253561" numLanes="1" width="4.0" shape="243.260388,-23.077988 197.857559,-23.741266 "/>
  <edge id="177388625_1" from="1878419949" to="1878419347" numLanes="1" width="4.0" shape="191.881818,-19.760495 193.028907,174.368709 "/>
  <edge id="177388629_1" from="1878420263" to="1878420645" numLanes="1" width="4.0" shape="599.660204,531.824265 599.485284,392.017263 "/>
  <edge id="17415447_4" from="1878420645" to="180251831" numLanes="1" width="4.0" shape="601.480118,388.040881 642.281901,388.389807 "/>
  <edge id="-17415447_4" to="1878420645" from="180251831" numLanes="1" width="4.0" shape="642.281901,388.389807 601.480118,388.040881 "/>
  <edge id="177388630_1" from="1878419350" to="1878419440" numLanes="1" width="4.0" shape="-2.828965,-20.011083 -2.328160,172.016720 "/>
  <edge id="17427279_6" from="1878419440" to="180276857" numLanes="1" width="4.0" shape="3.681820,176.099887 45.473526,176.766931 "/>
  <edge id="-17427279_6" to="1878419440" from="180276857" numLanes="1" width="4.0" shape="45.473526,176.766931 3.681820,176.099887 "/>
  <edge id="177388632_1" from="1878419416" to="1878419562" numLanes="1" width="4.0" shape="398.779385,-9.652175 397.817988,176.990528 "/>
  <edge id="177388624_4" from="1878420312" to="1878420787" numLanes="1" width="4.0" shape="255.601091,533.593278 297.130249,534.373515 "/>
  <edge id="177388624_6" from="1878420787" to="1878419220" numLanes="1" width="4.0" shape="305.128626,534.524194 346.913333,535.313499 "/>
  <edge id="177388636_1" from="1878420787" to="1878419770" numLanes="1" width="4.0" shape="303.167491,528.449194 303.180640,389.527129 "/>
  <edge id="435394422_1" from="180297772" to="7919890305" numLanes="2" width="3.5" shape="-52.416074,182.210532 -52.388826,183.759802 -52.357696,186.213313 -51.975338,209.956829 "/>
  <edge id="-435394422_1" to="180297772" from="7919890305" numLanes="2" width="3.5" shape="-51.975338,209.956829 -52.357696,186.213313 -52.388826,183.759802 -52.416074,182.210532 "/>
  <edge id="435394431_1" from="4333071457" to="180276433" numLanes="3" width="3.5" shape="-55.330323,219.451561 -53.387132,375.615697 "/>
  <edge id="-435394431_1" to="4333071457" from="180276433" numLanes="1" width="3.5" shape="-53.387132,375.615697 -55.330323,219.451561 "/>
  <edge id="17415447_2" from="1877436774" to="180276433" numLanes="1" width="4.0" shape="-107.324687,382.080912 -56.853593,382.511441 "/>
  <edge id="-17415447_2" to="1877436774" from="180276433" numLanes="1" width="4.0" shape="-56.853593,382.511441 -107.324687,382.080912 "/>
  <edge id="177388579_2" from="1878420643" to="180234326" numLanes="1" width="4.0" shape="593.292602,6.618362 552.217009,6.392702 "/>
  <edge id="177388579_5" from="180234326" to="1878420074" numLanes="1" width="4.0" shape="544.337528,6.103002 503.586327,3.322851 "/>
  <edge id="582885999_1" from="180234326" to="180279236" numLanes="1" width="4.0" shape="548.211956,12.370572 549.021441,175.622253 "/>