<?xml version='1.0' encoding='UTF-8'?>
<nodes>
  <node id="10782118915" x="-252.019209" y="576.133471" shape="-248.039718,574.092968 -247.999112,578.092762 -250.001960,580.124800 -254.001923,580.142067 -255.998485,578.174393 -256.039512,574.174603 -252.039512,574.133574 -248.039718,574.092968 -248.039718,574.092968"/>
  <node id="10782118916" x="-167.140604" y="575.264177" shape="-163.199616,571.206023 -163.161025,573.223847 -163.082344,579.205056 -171.081483,579.322437 -171.119682,577.305485 -171.198758,571.323189 -163.199616,571.206023 -163.199616,571.206023"/>
  <node id="10782118917" x="-108.895757" y="574.675399" shape="-106.945374,570.650973 -104.916504,572.634431 -104.875431,576.634220 -106.847012,578.650653 -110.846713,578.699547 -112.875336,576.715729 -112.915769,572.715934 -110.945068,570.700437 -106.945374,570.650973 -106.945374,570.650973"/>
  <node id="10782118919" x="-406.378734" y="577.716786" shape="-410.054250,573.416718 -402.078666,574.041270 -402.358431,579.675654 -402.703654,582.017227 -410.679175,581.391866 -410.725469,578.768402 -410.054250,573.416718 -410.054250,573.416718"/>
  <node id="11425730083" x="693.178738" y="587.543687" shape="689.227147,583.495857 695.219236,583.564193 697.224565,583.590045 697.132380,591.589514 693.130619,591.543398 689.130908,591.495278 689.227147,583.495857 689.227147,583.495857"/>
  <node id="11425730084" x="693.669795" y="537.301185" shape="689.714667,535.213850 697.709414,535.382467 697.628541,539.381649 695.630886,541.320404 691.631074,541.281589 689.626851,539.212886 689.714667,535.213850 689.714667,535.213850"/>
  <node id="1433738491" x="824.740413" y="391.696725" shape="825.697973,387.328307 828.809684,389.841722 829.081103,392.773021 826.483790,395.815054 821.926460,398.411014 818.804037,395.910920 817.704629,393.566951 817.778590,389.567635 825.697973,387.328307 825.697973,387.328307"/>
  <node id="1433738503" x="746.513658" y="489.419939" shape="747.452270,485.047410 750.574848,487.547311 750.901728,490.282983 748.456065,493.448221 743.760172,496.159250 740.615401,493.687323 739.489795,491.334447 739.538562,487.334745 747.452270,485.047410 747.452270,485.047410"/>
  <node id="180234309" x="350.949615" y="-30.126735" shape="347.268709,-32.666604 351.229381,-32.107071 351.503725,-32.048443 355.347141,-30.940223 354.944340,-26.121467 346.944347,-26.132010 346.709177,-28.705932 347.268709,-32.666604 347.268709,-32.666604"/>
  <node id="180234316" x="450.573751" y="-3.107152" shape="446.948513,-5.725864 450.896188,-5.080989 450.972099,-5.067080 454.891956,-4.270384 454.543137,0.923229 446.543370,0.862234 446.303639,-1.778189 446.948513,-5.725864 446.948513,-5.725864"/>
  <node id="180234326" x="548.192122" y="8.370621" shape="544.337527,6.103002 552.203049,6.392626 552.211907,12.350738 544.212005,12.390406 544.065270,10.093726 544.337527,6.103002 544.337527,6.103002"/>
  <node id="180234328" x="651.423925" y="8.936514" shape="647.434926,6.914661 651.434867,6.936544 655.423900,8.950728 655.409686,12.950703 647.409736,12.922275 647.413043,10.914601 647.434926,6.914661 647.434926,6.914661"/>
  <node id="180237105" x="-407.167833" y="587.780538" shape="-410.842913,583.480097 -402.867392,584.105458 -403.150652,589.745800 -407.150501,589.780463 -407.511323,589.750821 -411.451889,589.063842 -410.842913,583.480097 -410.842913,583.480097"/>
  <node id="180238359" x="-394.898425" y="496.942877" shape="-392.196914,491.972782 -389.928330,499.644388 -391.657933,501.579601 -399.535149,500.183369 -399.359194,497.261536 -397.829813,493.565458 -392.196914,491.972782 -392.196914,491.972782"/>
  <node id="180251829" x="648.311752" y="587.004623" shape="644.348113,579.983970 652.348005,580.025464 655.359020,583.088502 655.263485,591.087931 652.366336,593.973149 644.366580,594.035670 641.264302,590.920417 641.360209,582.920992 644.348113,579.983970 644.348113,579.983970"/>
  <node id="180251830" x="648.778803" y="488.232413" shape="644.791636,484.219621 652.791595,484.245246 652.801912,486.279315 652.761946,492.249199 644.762017,492.215556 644.791636,484.219621 644.791636,484.219621"/>
  <node id="180251831" x="649.281645" y="388.449667" shape="653.261575,381.438237 653.318469,386.525076 653.253811,392.477309 645.254003,392.421833 642.247695,392.389661 642.316107,384.389953 645.261608,381.461155 653.261575,381.438237 653.261575,381.438237"/>
  <node id="180251832" x="649.146531" y="286.305769" shape="645.182336,282.270282 653.182018,282.341574 653.144842,290.307457 645.144843,290.304080 645.146531,286.304080 645.146690,286.270123 645.182336,282.270282 645.182336,282.270282"/>
  <node id="180251835" x="650.029963" y="184.677802" shape="646.109032,177.633208 654.108525,177.723283 657.068040,180.745185 656.991241,188.744817 653.967158,191.713319 645.967478,191.641725 642.949595,188.533757 643.113261,180.535431 646.109032,177.633208 646.109032,177.633208"/>
  <node id="180253556" x="251.725653" y="582.289918" shape="255.709865,575.280920 261.772520,578.409137 261.677371,586.408572 258.253932,590.124557 244.678287,586.205863 244.774022,578.206436 247.709886,575.298952 255.709865,575.280920 255.709865,575.280920"/>
  <node id="180253557" x="251.30242" y="385.086355" shape="247.317165,378.077950 255.317147,378.094791 258.336606,381.146783 258.267715,389.146487 255.317173,392.077904 247.317191,392.094775 244.269766,389.028661 244.335548,381.028931 247.317165,378.077950 247.317165,378.077950"/>
  <node id="180253558" x="251.735808" y="179.217738" shape="255.684597,172.188722 258.774733,175.286640 258.696208,183.286255 255.721063,186.226143 247.721081,186.209302 244.677760,183.114397 244.795369,175.115262 247.684811,172.247127 255.684597,172.188722 255.684597,172.188722"/>
  <node id="180253561" x="250.259641" y="-22.975737" shape="246.337142,-30.019458 254.336655,-29.931163 254.288737,-19.005046 246.288950,-18.946641 243.201959,-19.078414 243.318817,-27.077561 246.337142,-30.019458 246.337142,-30.019458"/>
  <node id="180254922" x="-54.042529" y="-24.494747" shape="-47.071037,-28.544228 -47.007958,-28.433631 -46.994045,-17.543569 -60.993707,-17.446263 -61.070686,-28.445065 -47.071037,-28.544228 -47.071037,-28.544228"/>
  <node id="180254925" x="46.852704" y="-23.612882" shape="50.815406,-27.649835 50.889657,-19.650180 44.905161,-19.587081 42.817400,-19.648501 42.888323,-27.648186 50.815406,-27.649835 50.815406,-27.649835"/>
  <node id="180254927" x="145.032038" y="-24.512279" shape="144.995831,-28.512115 145.090409,-28.511853 149.089983,-28.453482 148.973241,-20.454334 141.068409,-20.476236 140.995995,-28.475908 144.995831,-28.512115 144.995831,-28.512115"/>
  <node id="180256006" x="-205.082885" y="476.330614" shape="-207.855583,471.399879 -200.527176,472.977181 -201.729452,480.886323 -207.067890,480.338077 -210.013620,479.103312 -207.855583,471.399879 -207.855583,471.399879"/>
  <node id="180261931" x="-249.796713" y="458.25398" shape="-251.615462,451.246811 -246.799250,455.422865 -251.109244,462.162594 -256.501517,459.291538 -256.759199,455.299847 -255.101103,453.209029 -251.615462,451.246811 -251.615462,451.246811"/>
  <node id="180261934" x="-189.507886" y="477.970384" shape="-192.294382,471.244654 -188.307544,474.025872 -187.941580,476.726726 -188.710770,482.015703 -189.709499,481.965300 -189.760123,481.962423 -196.746192,481.521008 -196.241717,473.536930 -192.294382,471.244654 -192.294382,471.244654"/>
  <node id="180261937" x="-168.242851" y="479.043575" shape="-164.256195,472.035967 -164.242858,479.035954 -164.243491,479.115133 -164.315049,483.114493 -172.313769,482.971377 -175.435567,482.685668 -175.032340,474.695836 -172.256180,472.051209 -164.256195,472.035967 -164.256195,472.035967"/>
  <node id="180265229" x="-204.710889" y="575.653197" shape="-202.725884,571.645734 -200.731811,573.611889 -200.690396,577.611674 -204.690586,577.653094 -208.690380,577.693700 -208.730986,573.693906 -206.725856,571.660716 -202.725884,571.645734 -202.725884,571.645734"/>
  <node id="180270920" x="-166.987144" y="585.722016" shape="-163.046265,581.663756 -163.004460,583.687752 -162.970122,587.687604 -166.970069,587.721943 -170.969923,587.756093 -171.045404,581.781137 -163.046265,581.663756 -163.046265,581.663756"/>
  <node id="180270921" x="-47.552029" y="578.74304" shape="-40.586297,574.683658 -40.504871,574.826719 -40.495190,585.685736 -54.494725,585.799879 -56.802545,583.035820 -57.742036,579.147715 -57.746478,579.013601 -57.066352,575.071847 -54.585791,574.802711 -40.586297,574.683658 -40.586297,574.683658"/>
  <node id="180270922" x="52.986972" y="579.937858" shape="49.035327,575.890080 54.948320,575.918764 57.033786,575.985226 56.939604,583.984672 51.021385,583.954880 48.939194,583.889503 49.035327,575.890080 49.035327,575.890080"/>
  <node id="180270925" x="150.554122" y="581.084928" shape="146.601355,577.038246 152.511232,577.063769 154.601234,577.132601 154.506449,585.132040 148.587290,585.101341 146.507440,585.037695 146.601355,577.038246 146.601355,577.038246"/>
  <node id="180270928" x="351.190667" y="583.473004" shape="355.161338,576.456326 355.237439,579.520330 355.143341,587.519776 351.143092,587.472721 344.143588,587.389466 344.238737,579.390031 347.161409,576.489804 355.161338,576.456326 355.161338,576.456326"/>
  <node id="180270930" x="449.406947" y="584.631444" shape="445.431055,577.617723 453.431007,577.645248 453.454858,580.679936 453.358455,588.679355 442.360430,588.548918 442.454430,580.549471 445.431055,577.617723 445.431055,577.617723"/>
  <node id="180270932" x="547.573303" y="585.802623" shape="543.593793,578.790954 551.593758,578.814352 551.620410,581.850292 551.525634,589.849730 544.649327,592.469734 540.526468,589.719524 540.621118,581.720084 543.593793,578.790954 543.593793,578.790954"/>
  <node id="180270933" x="844.887318" y="589.652136" shape="844.164564,585.238790 848.945231,585.710899 848.828555,593.710049 846.177899,593.934005 840.829886,593.593867 840.945587,585.594704 844.164564,585.238790 844.164564,585.238790"/>
  <node id="180273918" x="148.390454" y="384.22464" shape="144.424107,380.191268 150.351387,380.205344 152.424474,380.258952 152.356142,388.258660 146.434942,388.246577 144.357082,388.190987 144.424107,380.191268 144.424107,380.191268"/>
  <node id="180273921" x="146.377925" y="177.670876" shape="142.412939,173.636166 148.351254,173.657651 150.436120,173.729930 150.318871,181.729071 144.416992,181.690172 142.343215,181.635862 142.412939,173.636166 142.412939,173.636166"/>
  <node id="180274995" x="350.385276" y="385.927522" shape="346.395051,378.921945 354.395043,378.933112 357.418199,381.985696 357.351872,389.985421 354.413526,392.911304 346.413591,392.943626 343.352060,389.868825 343.418982,381.869104 346.395051,378.921945 346.395051,378.921945"/>
  <node id="180274997" x="350.672459" y="180.193035" shape="346.681687,173.187770 354.681680,173.198312 357.738500,176.310888 357.604453,184.309765 354.662684,187.198612 346.662692,187.187445 343.633205,184.123545 343.712399,176.123937 346.681687,173.187770 346.681687,173.187770"/>
  <node id="180276430" x="-168.428553" y="381.57406" shape="-171.338019,376.722771 -161.395680,377.632144 -161.461905,385.631870 -164.415224,388.566426 -172.415209,388.581668 -173.279842,384.483526 -171.338019,376.722771 -171.338019,376.722771"/>
  <node id="180276433" x="-49.800307" y="382.571608" shape="-42.887945,375.485054 -42.767549,378.629488 -42.713821,389.484040 -56.712739,389.658094 -56.834172,386.511753 -56.886861,375.659246 -42.887945,375.485054 -42.887945,375.485054"/>
  <node id="180276436" x="51.072292" y="383.40918" shape="47.105871,379.375881 53.041266,379.393817 55.105671,379.442840 55.038632,387.442559 49.111499,387.428545 47.038993,387.375601 47.105871,379.375881 47.105871,379.375881"/>
  <node id="180276439" x="450.067382" y="386.766562" shape="454.036468,379.748987 457.101235,382.826396 457.033020,390.826105 454.044241,393.779735 446.044284,393.753313 443.033473,390.706629 443.101801,382.706921 446.036546,379.784273 454.036468,379.748987 454.036468,379.748987"/>
  <node id="180276442" x="548.151207" y="387.594082" shape="544.182150,380.576491 552.182072,380.611810 555.184417,383.652769 555.117507,391.652489 552.130802,394.605702 544.130836,394.582402 541.118061,391.535511 541.184840,383.535790 544.182150,380.576491 544.182150,380.576491"/>
  <node id="180276857" x="49.473017" y="176.830768" shape="45.537363,172.767441 51.420560,172.804967 53.507357,172.865405 53.438380,180.865108 47.504043,180.846131 45.409690,180.766422 45.537363,172.767441 45.537363,172.767441"/>
  <node id="180279231" x="431.829293" y="727.547937" shape="432.675422,723.156574 435.850060,725.590022 436.203978,728.476445 433.711298,731.604790 430.582953,729.112110 430.573719,729.104708 427.460178,726.593560 429.971326,723.480019 432.675422,723.156574 432.675422,723.156574"/>
  <node id="180279236" x="549.05615" y="182.622167" shape="553.021392,175.602419 556.135681,178.764675 555.973751,186.763036 553.025207,189.639758 545.025285,189.604439 542.025203,186.567518 542.087521,178.567760 545.021490,175.642087 553.021392,175.602419 553.021392,175.602419"/>
  <node id="180283111" x="849.700675" y="186.619258" shape="845.803735,179.561365 853.802875,179.678656 856.751010,182.708659 856.649207,190.708011 847.723814,190.630744 845.660553,190.578729 845.741204,182.579136 845.803735,179.561365 845.803735,179.561365"/>
  <node id="180292876" x="850.273738" y="288.705063" shape="852.254186,284.695347 854.297112,286.752509 854.249805,290.752230 850.249834,290.704920 846.250119,290.657111 846.297928,286.657397 848.254234,284.714875 852.254186,284.695347 852.254186,284.695347"/>
  <node id="180296984" x="-349.838403" y="483.618098" shape="-347.496214,475.903556 -344.202813,477.852673 -342.010122,485.546314 -352.539914,488.588193 -354.808498,480.916587 -355.295666,477.683599 -347.496214,475.903556 -347.496214,475.903556"/>
  <node id="180297772" x="-52.539168" y="175.211614" shape="-45.569460,171.159063 -45.475261,171.325585 -45.417156,182.087437 -59.414991,182.333626 -59.538086,175.334709 -59.538970,175.264278 -59.569064,171.264391 -45.569460,171.159063 -45.569460,171.159063"/>
  <node id="180302488" x="-389.093802" y="316.977894" shape="-385.591360,314.197084 -384.246272,319.893619 -392.009527,321.825424 -392.627184,319.719283 -393.406942,315.796022 -385.591360,314.197084 -385.591360,314.197084"/>
  <node id="180302492" x="-374.357852" y="376.211985" shape="-371.441034,371.365113 -370.898213,373.378101 -369.567767,379.221152 -377.367019,381.002070 -379.204724,373.295167 -371.441034,371.365113 -371.441034,371.365113"/>
  <node id="180320994" x="449.163533" y="181.849558" shape="445.217020,174.819264 453.216787,174.880259 456.194035,177.903416 456.132618,185.903180 453.194369,188.831847 445.194447,188.867133 442.097022,185.730849 442.232038,177.731988 445.217020,174.819264 445.217020,174.819264"/>
  <node id="180330476" x="-232.560938" y="325.818682" shape="-230.503196,318.023447 -224.800343,323.633925 -224.738719,327.771343 -230.271950,333.549176 -234.385106,329.901869 -238.196371,326.310514 -233.052770,320.183249 -230.503196,318.023447 -230.503196,318.023447"/>
  <node id="180345193" x="-294.232402" y="358.071479" shape="-291.729732,352.998349 -291.038042,354.941613 -289.811893,358.749048 -291.383026,361.518370 -295.280289,362.419114 -297.692041,360.905363 -299.305532,355.568809 -291.729732,352.998349 -291.729732,352.998349"/>
  <node id="180345194" x="-274.949655" y="351.861652" shape="-274.617460,347.401871 -272.109511,348.407150 -270.481967,352.061066 -271.598220,354.822713 -275.307642,356.319437 -278.144015,354.991518 -279.370164,351.184083 -278.318163,348.920028 -274.617460,347.401871 -274.617460,347.401871"/>
  <node id="180345951" x="-111.718802" y="308.304999" shape="-113.615616,304.255049 -109.616930,304.357578 -109.696673,312.293858 -113.696611,312.316018 -115.733751,312.289994 -115.703797,304.290050 -113.615616,304.255049 -113.615616,304.255049"/>
  <node id="1877436618" x="-108.766827" y="585.222205" shape="-106.815871,581.198057 -104.783192,583.189804 -104.750725,587.189672 -112.749511,587.256469 -112.783849,583.256617 -110.815572,581.246951 -106.815871,581.198057 -106.815871,581.198057"/>
  <node id="1877436657" x="-111.594433" y="330.75392" shape="-109.616624,326.742901 -109.594461,330.743397 -109.573414,334.743341 -113.573359,334.764388 -115.586210,332.770282 -115.602589,328.770316 -113.616562,326.765061 -109.616624,326.742901 -109.616624,326.742901"/>
  <node id="1877436677" x="-196.254432" y="360.588168" shape="-196.376733,354.932636 -194.764282,356.371599 -190.598887,360.466467 -196.132731,366.243713 -201.909964,360.710469 -196.376733,354.932636 -196.376733,354.932636"/>
  <node id="1877436774" x="-111.324542" y="382.046793" shape="-115.291292,378.013817 -109.345616,378.036325 -107.290568,378.081058 -107.358807,386.080767 -113.272737,386.072279 -115.357518,386.013543 -115.291292,378.013817 -115.291292,378.013817"/>
  <node id="1878419216" x="449.579881" y="534.368554" shape="445.593114,530.355365 453.593070,530.381787 453.599755,532.408805 453.566095,538.382293 445.566142,538.354768 445.560330,536.328964 445.593114,530.355365 445.593114,530.355365"/>
  <node id="1878419220" x="350.981079" y="533.389982" shape="354.964885,529.373853 355.000835,531.429991 354.997783,537.373208 346.997853,537.406686 346.944020,535.314080 346.964950,529.406176 354.964885,529.373853 354.964885,529.373853"/>
  <node id="1878419230" x="987.922023" y="188.309143" shape="980.972308,184.222402 987.971766,184.309452 987.988413,184.309694 988.988275,184.326292 989.485643,189.556176 988.855495,192.325190 985.121028,195.028847 980.872821,192.221783 980.972308,184.222402 980.972308,184.222402"/>
  <node id="1878419238" x="250.362954" y="-32.335906" shape="246.408223,-36.380668 254.407716,-36.290637 254.353935,-30.317968 254.318563,-28.292002 246.319050,-28.380297 246.363207,-32.380921 246.408223,-36.380668 246.408223,-36.380668"/>
  <node id="1878419275" x="399.872521" y="386.337832" shape="395.905822,382.304806 401.871055,382.337099 403.906539,382.372142 403.838211,390.371850 397.859783,390.331438 395.839495,390.304531 395.905822,382.304806 395.905822,382.304806"/>
  <node id="1878419317" x="455.594821" y="696.543797" shape="456.624324,692.191772 459.694143,694.756184 454.748692,700.935160 451.574054,698.501712 451.215450,695.637647 453.692119,692.496610 456.624324,692.191772 456.624324,692.191772"/>
  <node id="1878419318" x="498.485502" y="182.228223" shape="494.516329,178.197632 500.507459,178.239277 502.516540,178.259503 502.454222,186.259261 496.491424,186.231179 494.454911,186.197396 494.516329,178.197632 494.516329,178.197632"/>
  <node id="1878419338" x="947.72454" y="238.702569" shape="940.743865,236.636128 946.784656,236.673624 947.743549,236.702659 949.911626,239.168029 944.954330,245.435023 941.815707,242.955297 940.705847,240.635947 940.743865,236.636128 940.743865,236.636128"/>
  <node id="1878419347" x="195.05267" y="178.384338" shape="191.111724,174.326143 197.029000,174.372590 199.111042,174.443575 198.993433,182.442710 193.088975,182.402285 190.994475,182.325284 191.111724,174.326143 191.111724,174.326143"/>
  <node id="1878419350" x="-0.839443" y="-24.031376" shape="1.018422,-28.099341 3.195157,-27.996475 3.125656,-19.996776 -2.829004,-20.026174 -4.874128,-20.066364 -4.804455,-28.066061 1.018422,-28.099341 1.018422,-28.099341"/>
  <node id="1878419374" x="547.720856" y="535.351146" shape="543.732523,531.339513 551.732489,531.362813 551.739720,533.389327 551.709140,539.362827 543.709175,539.339430 543.701083,537.311101 543.732523,531.339513 543.732523,531.339513"/>
  <node id="1878419392" x="-251.974684" y="586.447621" shape="-249.991970,582.439025 -247.991905,584.413544 -247.957755,588.413398 -251.957632,588.447548 -255.957487,588.481651 -255.991590,584.481797 -253.991933,582.456292 -249.991970,582.439025 -249.991970,582.439025"/>
  <node id="1878419416" x="400.799962" y="-13.64182" shape="398.066130,-17.181052 405.267424,-13.846231 403.643968,-10.190497 402.779332,-9.631571 398.779385,-9.652175 396.328277,-13.578294 398.066130,-17.181052 398.066130,-17.181052"/>
  <node id="1878419440" x="-0.317671" y="176.03605" shape="-4.254158,171.973530 1.671890,172.030848 3.745656,172.100396 3.617983,180.099377 -2.272505,180.058316 -4.380191,179.972537 -4.254158,171.973530 -4.254158,171.973530"/>
  <node id="1878419452" x="150.018523" y="531.003809" shape="151.974035,526.981872 154.036885,529.040962 153.999818,533.040791 152.061185,534.982192 148.061413,535.024968 147.974281,527.026238 151.974035,526.981872 151.974035,526.981872"/>
  <node id="1878419461" x="708.604072" y="537.603191"/>
  <node id="1878419523" x="99.327656" y="383.813568" shape="95.361316,379.780189 101.295848,379.797821 103.361028,379.847221 103.294003,387.846940 99.294136,387.813428 95.294277,387.779908 95.361316,379.780189 95.361316,379.780189"/>
  <node id="1878419552" x="378.934957" y="583.79936" shape="374.982283,579.752588 378.982114,579.799638 382.981836,579.846795 382.887522,587.846239 376.903302,587.783375 374.888185,587.752034 374.982283,579.752588 374.982283,579.752588"/>
  <node id="1878419562" x="399.797277" y="181.016281" shape="395.864862,176.949819 401.817854,177.026636 403.864216,177.084359 403.729199,185.083220 397.798743,185.017014 395.730815,184.948696 395.864862,176.949819 395.864862,176.949819"/>
  <node id="1878419622" x="850.004526" y="237.778636" shape="851.980585,233.766755 854.021954,235.813878 853.986789,239.813724 852.026003,241.767825 848.026061,241.789331 845.979084,239.726921 846.030633,235.727253 847.980656,233.790660 851.980585,233.766755 851.980585,233.766755"/>
  <node id="1878419640" x="-299.112313" y="343.689142" shape="-296.605953,338.617834 -295.855177,340.624658 -294.039183,346.191812 -301.614983,348.762272 -302.620417,346.462804 -304.183621,341.182782 -296.605953,338.617834 -296.605953,338.617834"/>
  <node id="1878419770" x="301.18102" y="385.515897" shape="297.215614,381.481600 303.183815,381.517296 305.214341,381.549498 305.147419,389.549218 299.180641,389.515708 297.146723,389.481303 297.215614,381.481600 297.215614,381.481600"/>
  <node id="1878419788" x="650.601201" y="133.946342" shape="646.645854,129.902182 654.645361,129.990995 654.579212,135.989729 654.555910,137.991126 646.556417,137.901051 646.645854,129.902182 646.645854,129.902182"/>
  <node id="1878419809" x="-280.574698" y="338.149886" shape="-277.815851,334.630118 -276.103576,338.245103 -277.206190,341.091510 -280.906893,342.609667 -283.836456,341.209450 -284.979404,337.376218 -277.815851,334.630118 -277.815851,334.630118"/>
  <node id="1878419845" x="498.788845" y="387.182021" shape="494.823098,383.148059 500.782923,383.179065 502.822095,383.215550 502.755316,391.215271 496.763714,391.169357 494.754883,391.147768 494.823098,383.148059 494.823098,383.148059"/>
  <node id="1878419854" x="3.391696" y="579.34185" shape="1.551404,575.265905 7.439474,575.390205 7.343341,583.389628 -0.655451,583.294140 -0.560594,575.294703 1.551404,575.265905 1.551404,575.265905"/>
  <node id="1878419855" x="649.590437" y="235.153139" shape="645.625206,231.118670 653.624906,231.187908 653.617375,233.207948 653.555794,239.187485 645.556091,239.118496 645.590587,235.118520 645.625206,231.118670 645.625206,231.118670"/>
  <node id="1878419915" x="96.063035" y="-24.069009" shape="100.026664,-28.105052 100.099078,-20.105380 98.095260,-20.085284 92.099952,-20.032430 92.026456,-28.032092 96.026828,-28.068845 100.026664,-28.105052 100.026664,-28.105052"/>
  <node id="1878419934" x="-245.217355" y="318.099621" shape="-244.582922,314.150255 -243.595580,314.308863 -244.864447,322.207596 -245.851788,322.048987 -246.735157,316.457586 -244.582922,314.150255 -244.582922,314.150255"/>
  <node id="1878419937" x="785.982073" y="440.106507" shape="779.006647,438.022415 785.045797,438.075894 786.006141,438.106652 788.168329,440.575854 783.169622,446.821425 780.046639,444.322029 778.958512,442.022126 779.006647,438.022415 779.006647,438.022415"/>
  <node id="1878419949" x="193.857986" y="-23.799695" shape="189.916783,-27.857640 193.916415,-27.799268 197.915988,-27.740839 197.799130,-19.741693 191.881656,-19.787947 189.800041,-19.858492 189.916783,-27.857640 189.916783,-27.857640"/>
  <node id="1878419952" x="-281.161196" y="411.842004" shape="-280.635802,407.527709 -277.438006,414.088818 -280.704135,416.398017 -284.576103,414.729634 -285.520245,410.842656 -284.469067,408.670548 -280.635802,407.527709 -280.635802,407.527709"/>
  <node id="1878419990" x="850.441146" y="136.120011" shape="846.463135,134.076624 850.462899,134.120129 854.440716,136.178657 854.382070,140.178227 846.382930,140.060935 846.463135,134.076624 846.463135,134.076624"/>
  <node id="1878420010" x="649.126678" y="338.81047" shape="645.128165,334.808984 653.128164,334.811957 653.152597,336.863171 653.139358,342.797750 645.139398,342.823150 645.126698,338.823170 645.126678,338.808983 645.128165,334.808984 645.128165,334.808984"/>
  <node id="1878420074" x="499.459474" y="5.045956" shape="495.603091,2.781378 499.595603,3.050594 503.586326,3.322851 503.314069,7.313575 501.437456,9.056889 497.437517,9.034902 495.333982,6.772315 495.603091,2.781378 495.603091,2.781378"/>
  <node id="1878420117" x="101.400135" y="580.507855" shape="97.447503,576.461041 105.446817,576.555088 105.352902,584.554537 99.445118,584.530032 97.353321,584.460487 97.447503,576.461041 97.447503,576.461041"/>
  <node id="1878420185" x="301.324833" y="179.704509" shape="297.364288,175.665439 303.335213,175.709716 305.364234,175.744302 305.285040,183.743910 299.322038,183.703110 297.285763,183.665054 297.364288,175.665439 297.364288,175.665439"/>
  <node id="1878420263" x="597.66521" y="535.826764" shape="599.660204,531.824265 601.683959,533.864710 601.646102,537.864531 597.646165,537.826673 593.646346,537.788583 593.684436,533.788765 595.660207,531.829269 599.660204,531.824265 599.660204,531.824265"/>
  <node id="1878420270" x="597.624125" y="183.605445" shape="593.705910,179.525299 599.616289,179.601537 601.705121,179.688115 601.541455,187.686441 595.621310,187.604036 593.543979,187.523660 593.705910,179.525299 593.705910,179.525299"/>
  <node id="1878420312" x="251.611216" y="531.517965" shape="255.602772,527.509539 255.648079,529.593455 255.620222,535.508939 247.620242,535.526971 247.608753,533.513032 247.602790,527.526409 255.602772,527.509539 255.602772,527.509539"/>
  <node id="1878420438" x="-378.340355" y="360.192264" shape="-375.424630,355.344734 -374.832251,357.418602 -373.493483,363.109082 -381.257173,365.039136 -381.920471,362.872332 -383.187885,357.276539 -375.424630,355.344734 -375.424630,355.344734"/>
  <node id="1878420453" x="97.688217" y="177.246502" shape="93.722854,173.212162 99.655862,173.230487 101.722927,173.281516 101.653203,181.281212 95.720025,181.262249 93.653877,181.211865 93.722854,173.212162 93.722854,173.212162"/>
  <node id="1878420473" x="775.680327" y="541.300459" shape="776.420095,529.116340 787.381701,537.825140 785.666709,543.367382 780.538988,546.437911 775.666933,543.300414 769.577526,537.728931 776.420095,529.116340 776.420095,529.116340"/>
  <node id="1878420488" x="497.859594" y="534.853187" shape="495.884804,530.840681 499.884725,530.865851 501.879367,532.893232 501.839422,536.893033 497.839519,536.853086 493.839720,536.812936 493.879871,532.813138 495.884804,530.840681 495.884804,530.840681"/>
  <node id="1878420530" x="-361.751995" y="431.417389" shape="-358.742828,426.627304 -357.392946,432.416737 -356.962248,434.427094 -364.761700,436.207136 -366.124440,430.478387 -366.542080,428.408222 -358.742828,426.627304 -358.742828,426.627304"/>
  <node id="1878420532" x="1.992826" y="382.998872" shape="-1.974041,378.966011 3.948130,378.976834 6.026125,379.032451 5.959247,387.032171 -2.040035,386.965739 -1.974041,378.966011 -1.974041,378.966011"/>
  <node id="1878420561" x="865.146111" y="341.623351" shape="858.172736,339.532409 864.226534,339.585122 865.172143,339.623520 867.328440,342.110627 862.307259,348.327150 859.194135,345.815485 858.120672,343.532070 858.172736,339.532409 858.172736,339.532409"/>
  <node id="1878420566" x="651.319608" y="38.292598" shape="647.323187,37.278390 655.323136,37.306818 655.319579,38.307711 655.315801,39.307704 647.315858,39.277478 647.323187,37.278390 647.323187,37.278390"/>
  <node id="1878420592" x="399.402311" y="533.873124" shape="397.415070,529.866770 401.415049,529.879518 403.421862,531.912714 403.382370,535.912519 401.098263,537.927622 397.100490,537.794175 395.382555,535.833115 395.422465,531.833314 397.415070,529.866770 397.415070,529.866770"/>
  <node id="1878420596" x="301.874851" y="-32.104638" shape="299.917752,-36.125803 303.917523,-36.083016 305.883374,-34.087501 305.866255,-30.087538 303.864457,-28.099458 299.864471,-28.109845 297.865912,-30.122616 297.883870,-34.122576 299.917752,-36.125803 299.917752,-36.125803"/>
  <node id="1878420642" x="648.947661" y="438.458096" shape="644.974253,434.431680 652.974077,434.484688 652.971260,436.506006 652.933916,442.471794 644.933963,442.444351 644.947685,438.444374 644.947749,438.431592 644.974253,434.431680 644.974253,434.431680"/>
  <node id="1878420643" x="597.281555" y="8.640307" shape="593.292603,6.618362 601.292437,6.662220 601.270554,10.662160 599.289383,12.636383 595.289391,12.644215 593.270628,10.618302 593.292603,6.618362 593.292603,6.618362"/>
  <node id="1878420645" x="597.480264" y="388.006676" shape="593.513859,383.973361 599.483079,384.008085 601.514323,384.041028 601.445912,392.040735 595.485270,392.009175 593.446949,391.973081 593.513859,383.973361 593.513859,383.973361"/>
  <node id="1878420696" x="198.42296" y="531.452385" shape="200.381923,527.432128 202.425423,529.457318 202.420491,533.457315 198.420494,533.452383 198.404426,533.452299 194.404598,533.415232 194.441665,529.415403 196.382133,527.473060 200.381923,527.432128 200.381923,527.432128"/>