<?xml version="1.0" encoding="UTF-8"?>

<!-- generated on 2024-09-08 20:39:36 by Eclipse SUMO netedit Version 1.12.0
<configuration xmlns:xsi="http://www.w3.org/2001/XMLSchema-instance" xsi:noNamespaceSchemaLocation="http://sumo.dlr.de/xsd/netconvertConfiguration.xsd">

    <input>
        <sumo-net-file value="/home/lu/Git_Project/github/UAV_Follow_Env/Webots_Simulation/traffic_project/worlds/village_net/trafficLightBackUp/sumo.net.xml"/>
    </input>

    <output>
        <output-file value="/home/lu/Git_Project/github/UAV_Follow_Env/Webots_Simulation/traffic_project/worlds/village_net/trafficLightBackUp/sumo.net.xml"/>
    </output>

    <processing>
        <geometry.min-radius.fix.railways value="false"/>
        <geometry.max-grade.fix value="false"/>
        <offset.disable-normalization value="true"/>
        <lefthand value="false"/>
    </processing>

    <junctions>
        <no-turnarounds value="true"/>
        <junctions.corner-detail value="5"/>
        <junctions.limit-turn-speed value="5.5"/>
        <rectangular-lane-cut value="false"/>
    </junctions>

    <pedestrian>
        <walkingareas value="false"/>
    </pedestrian>

    <report>
        <aggregate-warnings value="5"/>
    </report>

</configuration>
-->

<net version="1.9" junctionCornerDetail="5" limitTurnSpeed="5.50" xmlns:xsi="http://www.w3.org/2001/XMLSchema-instance" xsi:noNamespaceSchemaLocation="http://sumo.dlr.de/xsd/net_file.xsd">

    <location netOffset="300.69,307.90" convBoundary="0.00,0.00,603.26,634.41" origBoundary="-301.13,-314.45,308.57,326.51" projParameter="!"/>

    <edge id=":-59271_0" function="internal">
        <lane id=":-59271_0_0" index="0" speed="4.36" length="3.65" width="3.00" shape="18.97,367.79 19.01,368.79 19.37,369.53 20.04,370.00 21.03,370.20"/>
        <lane id=":-59271_0_1" index="1" speed="5.46" length="6.34" width="3.00" shape="18.97,367.79 18.89,370.10 19.17,371.77 19.83,372.80 20.86,373.19"/>
        <lane id=":-59271_0_2" index="2" speed="6.44" length="9.18" width="3.00" shape="18.97,367.79 18.76,371.41 18.98,374.01 19.63,375.61 20.70,376.19"/>
        <lane id=":-59271_0_3" index="3" speed="7.29" length="12.08" width="3.00" shape="18.97,367.79 18.64,372.71 18.79,376.26 19.42,378.41 20.53,379.18"/>
    </edge>
    <edge id=":-59271_4" function="internal">
        <lane id=":-59271_4_0" index="0" speed="13.89" length="13.99" width="3.00" shape="18.97,367.79 18.05,381.45"/>
        <lane id=":-59271_4_1" index="1" speed="13.89" length="13.99" width="3.00" shape="15.98,367.48 15.06,381.35"/>
        <lane id=":-59271_4_2" index="2" speed="13.89" length="13.99" width="3.00" shape="13.00,367.18 12.06,381.24"/>
        <lane id=":-59271_4_3" index="3" speed="13.89" length="13.99" width="3.00" shape="10.01,366.88 9.06,381.14"/>
    </edge>
    <edge id=":-59275_0" function="internal">
        <lane id=":-59275_0_0" index="0" speed="13.89" length="14.00" width="3.00" shape="578.97,290.02 580.32,303.87"/>
        <lane id=":-59275_0_1" index="1" speed="13.89" length="14.00" width="3.00" shape="575.98,290.29 577.34,304.19"/>
        <lane id=":-59275_0_2" index="2" speed="13.89" length="14.00" width="3.00" shape="572.99,290.55 574.35,304.51"/>
        <lane id=":-59275_0_3" index="3" speed="13.89" length="14.00" width="3.00" shape="570.00,290.82 571.37,304.83"/>
    </edge>
    <edge id=":-59275_4" function="internal">
        <lane id=":-59275_4_0" index="0" speed="8.99" length="18.60" width="3.00" shape="567.57,293.85 572.68,293.90 576.51,295.59 579.06,298.91 580.32,303.87"/>
        <lane id=":-59275_4_1" index="1" speed="7.78" length="13.67" width="3.00" shape="567.96,296.83 571.72,296.86 574.54,298.10 576.41,300.55 577.34,304.19"/>
        <lane id=":-59275_4_2" index="2" speed="6.34" length="8.75" width="3.00" shape="568.36,299.80 570.76,299.82 572.56,300.62 573.76,302.18 574.35,304.51"/>
        <lane id=":-59275_4_3" index="3" speed="4.46" length="3.82" width="3.00" shape="568.75,302.77 569.80,302.78 570.59,303.13 571.11,303.81 571.37,304.83"/>
    </edge>
    <edge id=":-59277_0" function="internal">
        <lane id=":-59277_0_0" index="0" speed="4.55" length="3.96" width="3.00" shape="241.16,368.99 242.23,368.77 242.96,368.26 243.37,367.46 243.44,366.38"/>
        <lane id=":-59277_0_1" index="1" speed="5.62" length="6.58" width="3.00" shape="241.16,368.99 243.54,368.68 245.21,368.10 246.17,367.26 246.43,366.15"/>
        <lane id=":-59277_0_2" index="2" speed="6.58" length="9.37" width="3.00" shape="241.16,368.99 244.85,368.59 247.45,367.94 248.98,367.05 249.42,365.92"/>
        <lane id=":-59277_0_3" index="3" speed="7.43" length="12.23" width="3.00" shape="241.16,368.99 246.16,368.50 249.70,367.78 251.78,366.85 252.41,365.69"/>
    </edge>
    <edge id=":-59277_4" function="internal">
        <lane id=":-59277_4_0" index="0" speed="13.89" length="14.00" width="3.00" shape="241.16,368.99 255.13,368.05"/>
        <lane id=":-59277_4_1" index="1" speed="13.89" length="14.00" width="3.00" shape="241.36,371.99 255.33,371.05"/>
        <lane id=":-59277_4_2" index="2" speed="13.89" length="14.00" width="3.00" shape="241.57,374.98 255.54,374.04"/>
        <lane id=":-59277_4_3" index="3" speed="13.89" length="14.00" width="3.00" shape="241.77,377.97 255.74,377.03"/>
    </edge>
    <edge id=":-59280_0" function="internal">
        <lane id=":-59280_0_0" index="0" speed="9.12" length="18.50" width="3.00" shape="191.74,46.55 192.00,41.51 193.81,37.72 197.16,35.20 202.05,33.93"/>
        <lane id=":-59280_0_1" index="1" speed="7.92" length="13.73" width="3.00" shape="194.73,46.28 194.92,42.54 196.26,39.73 198.75,37.85 202.39,36.92"/>
        <lane id=":-59280_0_2" index="2" speed="6.51" length="8.97" width="3.00" shape="197.72,46.01 197.84,43.57 198.72,41.73 200.35,40.51 202.72,39.90"/>
        <lane id=":-59280_0_3" index="3" speed="4.70" length="4.20" width="3.00" shape="200.71,45.74 200.77,44.60 201.18,43.74 201.94,43.17 203.05,42.88"/>
    </edge>
    <edge id=":-59280_4" function="internal">
        <lane id=":-59280_4_0" index="0" speed="13.89" length="13.99" width="3.00" shape="188.74,34.47 192.70,34.58 195.41,34.56 198.12,34.36 202.05,33.93"/>
        <lane id=":-59280_4_1" index="1" speed="13.89" length="13.99" width="3.00" shape="188.65,37.47 192.73,37.58 195.53,37.56 198.32,37.35 202.39,36.92"/>
        <lane id=":-59280_4_2" index="2" speed="13.89" length="13.99" width="3.00" shape="188.56,40.47 192.77,40.58 195.65,40.56 198.53,40.35 202.72,39.90"/>
        <lane id=":-59280_4_3" index="3" speed="13.89" length="13.99" width="3.00" shape="188.47,43.47 192.80,43.58 195.77,43.56 198.74,43.34 203.05,42.88"/>
    </edge>
    <edge id=":-59282_0" function="internal">
        <lane id=":-59282_0_0" index="0" speed="13.89" length="14.00" width="3.00" shape="347.46,354.32 360.75,349.92"/>
        <lane id=":-59282_0_1" index="1" speed="13.89" length="14.00" width="3.00" shape="348.41,357.17 361.70,352.77"/>
        <lane id=":-59282_0_2" index="2" speed="13.89" length="14.00" width="3.00" shape="349.35,360.02 362.64,355.62"/>
        <lane id=":-59282_0_3" index="3" speed="13.89" length="14.00" width="3.00" shape="350.29,362.87 363.58,358.47"/>
    </edge>
    <edge id=":-59282_4" function="internal">
        <lane id=":-59282_4_0" index="0" speed="7.53" length="12.34" width="3.00" shape="350.29,362.87 355.15,361.42 358.74,360.71 361.06,360.74 362.09,361.50"/>
        <lane id=":-59282_4_1" index="1" speed="6.68" length="9.51" width="3.00" shape="350.29,362.87 353.91,361.83 356.61,361.43 358.40,361.65 359.26,362.50"/>
        <lane id=":-59282_4_2" index="2" speed="5.74" length="6.76" width="3.00" shape="350.29,362.87 352.66,362.25 354.48,362.15 355.74,362.56 356.43,363.50"/>
        <lane id=":-59282_4_3" index="3" speed="4.69" length="4.19" width="3.00" shape="350.29,362.87 351.42,362.66 352.35,362.87 353.08,363.48 353.60,364.49"/>
    </edge>
    <edge id=":-59286_0" function="internal">
        <lane id=":-59286_0_0" index="0" speed="4.50" length="3.89" width="3.00" shape="514.82,594.90 515.40,595.80 516.13,596.29 517.00,596.37 518.02,596.05"/>
        <lane id=":-59286_0_1" index="1" speed="6.37" length="8.79" width="3.00" shape="512.10,596.16 513.41,598.18 515.05,599.29 517.03,599.48 519.33,598.75"/>
        <lane id=":-59286_0_2" index="2" speed="7.80" length="13.69" width="3.00" shape="509.38,597.41 511.42,600.57 513.98,602.29 517.05,602.59 520.63,601.45"/>
        <lane id=":-59286_0_3" index="3" speed="9.01" length="18.59" width="3.00" shape="506.65,598.67 509.43,602.96 512.90,605.30 517.07,605.70 521.94,604.15"/>
    </edge>
    <edge id=":-59286_4" function="internal">
        <lane id=":-59286_4_0" index="0" speed="13.89" length="14.00" width="3.00" shape="505.45,601.88 518.02,596.05"/>
        <lane id=":-59286_4_1" index="1" speed="13.89" length="14.00" width="3.00" shape="506.67,604.62 519.33,598.75"/>
        <lane id=":-59286_4_2" index="2" speed="13.89" length="14.00" width="3.00" shape="507.89,607.36 520.63,601.45"/>
        <lane id=":-59286_4_3" index="3" speed="13.89" length="14.00" width="3.00" shape="509.11,610.10 521.94,604.15"/>
    </edge>
    <edge id=":-59288_0" function="internal">
        <lane id=":-59288_0_0" index="0" speed="13.89" length="13.98" width="3.00" shape="229.87,226.52 229.37,222.65 228.90,220.01 228.22,217.42 227.07,213.69"/>
        <lane id=":-59288_0_1" index="1" speed="13.89" length="13.98" width="3.00" shape="232.85,226.15 232.32,222.11 231.84,219.37 231.13,216.67 229.93,212.79"/>
        <lane id=":-59288_0_2" index="2" speed="13.89" length="13.98" width="3.00" shape="235.83,225.77 235.28,221.58 234.78,218.73 234.04,215.93 232.80,211.89"/>
        <lane id=":-59288_0_3" index="3" speed="13.89" length="13.98" width="3.00" shape="238.80,225.40 238.23,221.05 237.71,218.09 236.95,215.18 235.66,210.99"/>
    </edge>
    <edge id=":-59288_4" function="internal">
        <lane id=":-59288_4_0" index="0" speed="7.37" length="12.16" width="3.00" shape="238.80,225.40 238.34,220.44 238.39,216.85 238.93,214.65 239.98,213.83"/>
        <lane id=":-59288_4_1" index="1" speed="6.51" length="9.28" width="3.00" shape="238.80,225.40 238.50,221.74 238.65,219.09 239.24,217.45 240.28,216.82"/>
        <lane id=":-59288_4_2" index="2" speed="5.55" length="6.47" width="3.00" shape="238.80,225.40 238.66,223.04 238.91,221.32 239.55,220.24 240.58,219.80"/>
        <lane id=":-59288_4_3" index="3" speed="4.46" length="3.83" width="3.00" shape="238.80,225.40 238.82,224.34 239.17,223.56 239.86,223.04 240.88,222.79"/>
    </edge>
    <edge id=":-59291_0" function="internal">
        <lane id=":-59291_0_0" index="0" speed="13.89" length="14.00" width="3.00" shape="568.97,178.21 570.29,192.20"/>
        <lane id=":-59291_0_1" index="1" speed="13.89" length="14.00" width="3.00" shape="565.98,178.51 567.30,192.47"/>
        <lane id=":-59291_0_2" index="2" speed="13.89" length="14.00" width="3.00" shape="563.00,178.82 564.31,192.73"/>
        <lane id=":-59291_0_3" index="3" speed="13.89" length="14.00" width="3.00" shape="560.01,179.12 561.32,193.00"/>
    </edge>
    <edge id=":-59291_4" function="internal">
        <lane id=":-59291_4_0" index="0" speed="9.02" length="18.56" width="3.00" shape="557.78,181.85 562.87,182.07 566.65,183.86 569.12,187.24 570.29,192.20"/>
        <lane id=":-59291_4_1" index="1" speed="7.82" length="13.68" width="3.00" shape="558.08,184.84 561.83,184.99 564.62,186.32 566.44,188.81 567.30,192.47"/>
        <lane id=":-59291_4_2" index="2" speed="6.39" length="8.81" width="3.00" shape="558.38,187.82 560.79,187.92 562.59,188.78 563.76,190.38 564.31,192.73"/>
        <lane id=":-59291_4_3" index="3" speed="4.52" length="3.93" width="3.00" shape="558.68,190.81 559.76,190.85 560.56,191.23 561.08,191.95 561.32,193.00"/>
    </edge>
    <edge id=":-59319_0" function="internal">
        <lane id=":-59319_0_0" index="0" speed="4.86" length="4.46" width="3.00" shape="10.49,602.91 10.62,604.12 11.10,605.01 11.93,605.60 13.12,605.87"/>
        <lane id=":-59319_0_1" index="1" speed="6.63" length="9.12" width="3.00" shape="7.50,602.81 7.76,605.27 8.74,607.10 10.44,608.30 12.86,608.86"/>
        <lane id=":-59319_0_2" index="2" speed="8.03" length="13.77" width="3.00" shape="4.50,602.70 4.90,606.43 6.38,609.20 8.95,611.00 12.60,611.85"/>
        <lane id=":-59319_0_3" index="3" speed="9.21" length="18.43" width="3.00" shape="1.50,602.60 2.03,607.59 4.02,611.29 7.45,613.71 12.34,614.84"/>
    </edge>
    <edge id=":-59326_0" function="internal">
        <lane id=":-59326_0_0" index="0" speed="9.03" length="18.57" width="3.00" shape="538.86,-3.70 543.95,-3.54 547.75,-1.79 550.27,1.56 551.50,6.51"/>
        <lane id=":-59326_0_1" index="1" speed="7.82" length="13.69" width="3.00" shape="539.19,-0.71 542.94,-0.60 545.75,0.69 547.61,3.16 548.51,6.81"/>
        <lane id=":-59326_0_2" index="2" speed="6.40" length="8.82" width="3.00" shape="539.52,2.27 541.94,2.34 543.75,3.17 544.94,4.77 545.53,7.11"/>
        <lane id=":-59326_0_3" index="3" speed="4.54" length="3.95" width="3.00" shape="539.85,5.25 540.94,5.28 541.75,5.66 542.28,6.37 542.54,7.42"/>
    </edge>
    <edge id=":-59432_0" function="internal">
        <lane id=":-59432_0_0" index="0" speed="13.89" length="0.69" width="3.00" shape="163.52,374.24 164.16,374.19"/>
        <lane id=":-59432_0_1" index="1" speed="13.89" length="0.69" width="3.00" shape="163.69,377.23 164.36,377.19"/>
        <lane id=":-59432_0_2" index="2" speed="13.89" length="0.69" width="3.00" shape="163.85,380.23 164.56,380.18"/>
        <lane id=":-59432_0_3" index="3" speed="13.89" length="0.69" width="3.00" shape="164.02,383.22 164.76,383.17"/>
    </edge>
    <edge id=":-59433_0" function="internal">
        <lane id=":-59433_0_0" index="0" speed="13.89" length="0.30" width="3.00" shape="307.01,364.55 307.31,364.53"/>
        <lane id=":-59433_0_1" index="1" speed="13.89" length="0.30" width="3.00" shape="307.21,367.55 307.51,367.53"/>
        <lane id=":-59433_0_2" index="2" speed="13.89" length="0.30" width="3.00" shape="307.42,370.54 307.72,370.52"/>
        <lane id=":-59433_0_3" index="3" speed="13.89" length="0.30" width="3.00" shape="307.62,373.53 307.92,373.51"/>
    </edge>
    <edge id=":-59434_0" function="internal">
        <lane id=":-59434_0_0" index="0" speed="13.89" length="0.30" width="3.00" shape="456.19,318.36 456.47,318.26"/>
        <lane id=":-59434_0_1" index="1" speed="13.89" length="0.30" width="3.00" shape="457.13,321.21 457.42,321.11"/>
        <lane id=":-59434_0_2" index="2" speed="13.89" length="0.30" width="3.00" shape="458.07,324.05 458.36,323.96"/>
        <lane id=":-59434_0_3" index="3" speed="13.89" length="0.30" width="3.00" shape="459.02,326.90 459.30,326.81"/>
    </edge>
    <edge id=":-59435_0" function="internal">
        <lane id=":-59435_0_0" index="0" speed="13.89" length="0.30" width="3.00" shape="436.07,492.49 436.27,492.71"/>
        <lane id=":-59435_0_1" index="1" speed="13.89" length="0.30" width="3.00" shape="433.86,494.51 434.06,494.73"/>
        <lane id=":-59435_0_2" index="2" speed="13.89" length="0.30" width="3.00" shape="431.64,496.53 431.84,496.76"/>
        <lane id=":-59435_0_3" index="3" speed="13.89" length="0.30" width="3.00" shape="429.43,498.56 429.63,498.78"/>
    </edge>
    <edge id=":-59436_0" function="internal">
        <lane id=":-59436_0_0" index="0" speed="13.89" length="0.45" width="3.00" shape="147.08,617.46 147.50,617.50"/>
        <lane id=":-59436_0_1" index="1" speed="13.89" length="0.45" width="3.00" shape="146.82,620.45 147.26,620.49"/>
        <lane id=":-59436_0_2" index="2" speed="13.89" length="0.45" width="3.00" shape="146.57,623.44 147.03,623.48"/>
        <lane id=":-59436_0_3" index="3" speed="13.89" length="0.45" width="3.00" shape="146.31,626.43 146.79,626.47"/>
    </edge>
    <edge id=":-59437_0" function="internal">
        <lane id=":-59437_0_0" index="0" speed="13.89" length="0.27" width="3.00" shape="351.13,622.41 351.39,622.41"/>
        <lane id=":-59437_0_1" index="1" speed="13.89" length="0.27" width="3.00" shape="351.15,625.41 351.42,625.41"/>
        <lane id=":-59437_0_2" index="2" speed="13.89" length="0.27" width="3.00" shape="351.18,628.41 351.46,628.41"/>
        <lane id=":-59437_0_3" index="3" speed="13.89" length="0.27" width="3.00" shape="351.20,631.41 351.49,631.41"/>
    </edge>
    <edge id=":-59438_0" function="internal">
        <lane id=":-59438_0_0" index="0" speed="13.89" length="0.10" width="3.00" shape="14.03,499.06 14.03,499.06"/>
        <lane id=":-59438_0_1" index="1" speed="13.89" length="0.10" width="3.00" shape="11.04,498.96 11.04,498.96"/>
        <lane id=":-59438_0_2" index="2" speed="13.89" length="0.10" width="3.00" shape="8.04,498.85 8.04,498.85"/>
        <lane id=":-59438_0_3" index="3" speed="13.89" length="0.10" width="3.00" shape="5.04,498.75 5.04,498.75"/>
    </edge>
    <edge id=":-59439_0" function="internal">
        <lane id=":-59439_0_0" index="0" speed="13.89" length="0.30" width="3.00" shape="33.89,205.75 33.88,206.05"/>
        <lane id=":-59439_0_1" index="1" speed="13.89" length="0.30" width="3.00" shape="30.89,205.67 30.88,205.97"/>
        <lane id=":-59439_0_2" index="2" speed="13.89" length="0.30" width="3.00" shape="27.89,205.60 27.88,205.90"/>
        <lane id=":-59439_0_3" index="3" speed="13.89" length="0.30" width="3.00" shape="24.89,205.52 24.89,205.82"/>
    </edge>
    <edge id=":-59445_0" function="internal">
        <lane id=":-59445_0_0" index="0" speed="13.89" length="0.30" width="3.00" shape="405.13,197.22 405.43,197.19"/>
        <lane id=":-59445_0_1" index="1" speed="13.89" length="0.30" width="3.00" shape="405.43,200.20 405.73,200.17"/>
        <lane id=":-59445_0_2" index="2" speed="13.89" length="0.30" width="3.00" shape="405.73,203.19 406.03,203.16"/>
        <lane id=":-59445_0_3" index="3" speed="13.89" length="0.30" width="3.00" shape="406.03,206.17 406.33,206.14"/>
    </edge>
    <edge id=":-59450_0" function="internal">
        <lane id=":-59450_0_0" index="0" speed="13.89" length="0.10" width="3.00" shape="392.35,12.67 392.35,12.67"/>
        <lane id=":-59450_0_1" index="1" speed="13.89" length="0.10" width="3.00" shape="392.69,15.66 392.69,15.66"/>
        <lane id=":-59450_0_2" index="2" speed="13.89" length="0.10" width="3.00" shape="393.02,18.64 393.02,18.64"/>
        <lane id=":-59450_0_3" index="3" speed="13.89" length="0.10" width="3.00" shape="393.35,21.62 393.35,21.62"/>
    </edge>
    <edge id=":-59451_0" function="internal">
        <lane id=":-59451_0_0" index="0" speed="13.89" length="0.10" width="3.00" shape="595.11,441.70 595.11,441.70"/>
        <lane id=":-59451_0_1" index="1" speed="13.89" length="0.10" width="3.00" shape="592.13,442.02 592.13,442.02"/>
        <lane id=":-59451_0_2" index="2" speed="13.89" length="0.10" width="3.00" shape="589.14,442.34 589.14,442.34"/>
        <lane id=":-59451_0_3" index="3" speed="13.89" length="0.10" width="3.00" shape="586.16,442.66 586.16,442.66"/>
    </edge>

    <edge id="-7461_1" from="-59433" to="-59282" priority="-1" shape="307.87,375.02 320.25,374.18 320.75,374.13 321.24,374.03 321.73,373.89 350.76,364.29">
        <lane id="-7461_1_0" index="0" speed="13.89" length="42.83" width="3.00" shape="307.31,364.53 318.88,363.75 319.06,363.71 347.46,354.32"/>
        <lane id="-7461_1_1" index="1" speed="13.89" length="42.83" width="3.00" shape="307.51,367.53 319.27,366.73 319.82,366.62 348.41,357.17"/>
        <lane id="-7461_1_2" index="2" speed="13.89" length="42.83" width="3.00" shape="307.72,370.52 319.94,369.69 320.08,369.68 320.40,369.59 349.35,360.02"/>
        <lane id="-7461_1_3" index="3" speed="13.89" length="42.83" width="3.00" shape="307.92,373.51 320.15,372.68 320.53,372.65 320.88,372.57 321.29,372.46 350.29,362.87"/>
    </edge>
    <edge id="-7461_2" from="-59282" to="-59434" priority="-1" shape="364.05,359.89 459.63,328.28">
        <lane id="-7461_2_0" index="0" speed="13.89" length="100.52" width="3.00" shape="360.75,349.92 456.19,318.36"/>
        <lane id="-7461_2_1" index="1" speed="13.89" length="100.52" width="3.00" shape="361.70,352.77 457.13,321.21"/>
        <lane id="-7461_2_2" index="2" speed="13.89" length="100.52" width="3.00" shape="362.64,355.62 458.07,324.05"/>
        <lane id="-7461_2_3" index="3" speed="13.89" length="100.52" width="3.00" shape="363.58,358.47 459.02,326.90"/>
    </edge>
    <edge id="-7467" from="-59277" to="-59288" priority="-1" shape="253.91,365.58 247.83,285.24 247.80,284.95 240.29,225.21">
        <lane id="-7467_0" index="0" speed="13.89" length="140.83" width="3.00" shape="243.44,366.38 237.36,286.03 237.37,286.15 229.87,226.52"/>
        <lane id="-7467_1" index="1" speed="13.89" length="140.83" width="3.00" shape="246.43,366.15 240.35,285.80 232.85,226.15"/>
        <lane id="-7467_2" index="2" speed="13.89" length="140.83" width="3.00" shape="249.42,365.92 243.34,285.58 243.33,285.46 235.83,225.77"/>
        <lane id="-7467_3" index="3" speed="13.89" length="140.83" width="3.00" shape="252.41,365.69 246.33,285.35 246.31,285.12 238.80,225.40"/>
    </edge>
    <edge id="-7472" from="-59435" to="-59286" priority="-1" shape="428.42,499.68 437.11,509.19 437.75,509.80 479.82,544.12 505.29,599.30">
        <lane id="-7472_0" index="0" speed="13.89" length="130.68" width="3.00" shape="436.27,492.71 444.83,502.07 444.70,501.92 488.34,537.52 514.82,594.90"/>
        <lane id="-7472_1" index="1" speed="13.89" length="130.68" width="3.00" shape="434.06,494.73 442.62,504.11 442.72,504.17 485.90,539.40 512.10,596.16"/>
        <lane id="-7472_2" index="2" speed="13.89" length="130.68" width="3.00" shape="431.84,496.76 440.42,506.14 440.73,506.42 483.47,541.29 509.38,597.41"/>
        <lane id="-7472_3" index="3" speed="13.89" length="130.68" width="3.00" shape="429.63,498.78 438.21,508.17 438.74,508.67 481.04,543.18 506.65,598.67"/>
    </edge>
    <edge id="-7478" from="-59288" to="-59445" priority="-1" shape="241.03,224.28 300.71,218.28 366.45,211.66 406.33,207.65">
        <lane id="-7478_0" index="0" speed="13.89" length="165.98" width="3.00" shape="239.98,213.83 299.66,207.83 365.40,201.21 405.13,197.22"/>
        <lane id="-7478_1" index="1" speed="13.89" length="165.98" width="3.00" shape="240.28,216.82 299.96,210.82 365.70,204.20 405.43,200.20"/>
        <lane id="-7478_2" index="2" speed="13.89" length="165.98" width="3.00" shape="240.58,219.80 300.26,213.80 366.00,207.18 405.73,203.19"/>
        <lane id="-7478_3" index="3" speed="13.89" length="165.98" width="3.00" shape="240.88,222.79 300.56,216.79 366.30,210.17 406.03,206.17"/>
    </edge>
    <edge id="-7495" from="-59437" to="-59286" priority="-1" shape="351.36,632.91 463.21,631.61 463.81,631.57 464.42,631.47 465.00,631.31 465.57,631.10 509.72,611.47">
        <lane id="-7495_0" index="0" speed="13.89" length="159.98" width="3.00" shape="351.39,622.41 460.98,621.14 505.45,601.88"/>
        <lane id="-7495_1" index="1" speed="13.89" length="159.98" width="3.00" shape="351.42,625.41 462.37,624.12 463.23,623.93 506.67,604.62"/>
        <lane id="-7495_2" index="2" speed="13.89" length="159.98" width="3.00" shape="351.46,628.41 463.16,627.11 463.29,627.10 463.46,627.07 463.62,627.03 463.88,626.93 507.89,607.36"/>
        <lane id="-7495_3" index="3" speed="13.89" length="159.98" width="3.00" shape="351.49,631.41 463.19,630.11 463.64,630.08 464.10,630.00 464.54,629.88 465.01,629.71 509.11,610.10"/>
    </edge>
    <edge id="-7499" from="-59439" to="-59271" priority="-1" shape="23.39,205.63 22.91,224.30 8.52,366.73">
        <lane id="-7499_0" index="0" speed="13.89" length="162.13" width="3.00" shape="33.88,206.05 33.40,224.96 18.97,367.79"/>
        <lane id="-7499_1" index="1" speed="13.89" length="162.13" width="3.00" shape="30.88,205.97 30.40,224.77 15.98,367.48"/>
        <lane id="-7499_2" index="2" speed="13.89" length="162.13" width="3.00" shape="27.88,205.90 27.40,224.58 13.00,367.18"/>
        <lane id="-7499_3" index="3" speed="13.89" length="162.13" width="3.00" shape="24.89,205.82 24.41,224.39 10.01,366.88"/>
    </edge>
    <edge id="-7502" from="-59291" to="-59275" priority="-1" shape="559.83,193.13 568.51,290.95">
        <lane id="-7502_0" index="0" speed="13.89" length="98.20" width="3.00" shape="570.29,192.20 578.97,290.02"/>
        <lane id="-7502_1" index="1" speed="13.89" length="98.20" width="3.00" shape="567.30,192.47 575.98,290.29"/>
        <lane id="-7502_2" index="2" speed="13.89" length="98.20" width="3.00" shape="564.31,192.73 572.99,290.55"/>
        <lane id="-7502_3" index="3" speed="13.89" length="98.20" width="3.00" shape="561.32,193.00 570.00,290.82"/>
    </edge>
    <edge id="-7508" from="-59324" to="-59280" priority="-1" shape="40.65,40.55 188.42,44.97">
        <lane id="-7508_0" index="0" speed="13.89" length="147.84" width="3.00" shape="40.96,30.05 188.74,34.47"/>
        <lane id="-7508_1" index="1" speed="13.89" length="147.84" width="3.00" shape="40.87,33.05 188.65,37.47"/>
        <lane id="-7508_2" index="2" speed="13.89" length="147.84" width="3.00" shape="40.78,36.05 188.56,40.47"/>
        <lane id="-7508_3" index="3" speed="13.89" length="147.84" width="3.00" shape="40.69,39.05 188.47,43.47"/>
    </edge>
    <edge id="-7664" from="-59271" to="-59432" priority="-1" shape="20.45,380.68 131.47,386.88 132.21,386.87 164.56,384.69">
        <lane id="-7664_0" index="0" speed="13.89" length="143.37" width="3.00" shape="21.03,370.20 132.05,376.40 131.79,376.37 163.52,374.24"/>
        <lane id="-7664_1" index="1" speed="13.89" length="143.37" width="3.00" shape="20.86,373.19 131.91,379.37 163.69,377.23"/>
        <lane id="-7664_2" index="2" speed="13.89" length="143.37" width="3.00" shape="20.70,376.19 131.72,382.39 132.03,382.37 163.85,380.23"/>
        <lane id="-7664_3" index="3" speed="13.89" length="143.37" width="3.00" shape="20.53,379.18 131.55,385.38 132.15,385.37 164.02,383.22"/>
    </edge>
    <edge id="-7673_1" from="-59432" to="-59277" priority="-1" shape="164.56,384.69 241.87,379.47">
        <lane id="-7673_1_0" index="0" speed="13.89" length="77.18" width="3.00" shape="164.16,374.19 241.16,368.99"/>
        <lane id="-7673_1_1" index="1" speed="13.89" length="77.18" width="3.00" shape="164.36,377.19 241.36,371.99"/>
        <lane id="-7673_1_2" index="2" speed="13.89" length="77.18" width="3.00" shape="164.56,380.18 241.57,374.98"/>
        <lane id="-7673_1_3" index="3" speed="13.89" length="77.18" width="3.00" shape="164.76,383.17 241.77,377.97"/>
    </edge>
    <edge id="-7673_2" from="-59277" to="-59433" priority="-1" shape="255.84,378.53 307.87,375.02">
        <lane id="-7673_2_0" index="0" speed="13.89" length="52.00" width="3.00" shape="255.13,368.05 307.01,364.55"/>
        <lane id="-7673_2_1" index="1" speed="13.89" length="52.00" width="3.00" shape="255.33,371.05 307.21,367.55"/>
        <lane id="-7673_2_2" index="2" speed="13.89" length="52.00" width="3.00" shape="255.54,374.04 307.42,370.54"/>
        <lane id="-7673_2_3" index="3" speed="13.89" length="52.00" width="3.00" shape="255.74,377.03 307.62,373.53"/>
    </edge>
    <edge id="-7682" from="-59434" to="-59275" priority="-1" shape="459.63,328.28 507.56,312.42 568.95,304.26">
        <lane id="-7682_0" index="0" speed="13.89" length="113.39" width="3.00" shape="456.47,318.26 505.20,302.14 567.57,293.85"/>
        <lane id="-7682_1" index="1" speed="13.89" length="113.39" width="3.00" shape="457.42,321.11 505.87,305.08 567.96,296.83"/>
        <lane id="-7682_2" index="2" speed="13.89" length="113.39" width="3.00" shape="458.36,323.96 506.55,308.01 568.36,299.80"/>
        <lane id="-7682_3" index="3" speed="13.89" length="113.39" width="3.00" shape="459.30,326.81 507.22,310.95 568.75,302.77"/>
    </edge>
    <edge id="-7689" from="-59282" to="-59435" priority="-1" shape="352.19,364.99 381.12,447.19 381.35,447.75 381.63,448.28 381.97,448.78 382.35,449.24 428.42,499.68">
        <lane id="-7689_0" index="0" speed="13.89" length="155.29" width="3.00" shape="362.09,361.50 390.67,442.70 390.81,442.94 436.07,492.49"/>
        <lane id="-7689_1" index="1" speed="13.89" length="155.29" width="3.00" shape="359.26,362.50 387.94,443.98 388.39,444.74 433.86,494.51"/>
        <lane id="-7689_2" index="2" speed="13.89" length="155.29" width="3.00" shape="356.43,363.50 385.36,445.69 385.43,445.84 385.49,445.96 385.57,446.08 385.75,446.29 431.64,496.53"/>
        <lane id="-7689_3" index="3" speed="13.89" length="155.29" width="3.00" shape="353.60,364.49 382.53,446.69 382.71,447.11 382.92,447.51 383.17,447.88 383.48,448.26 429.43,498.56"/>
    </edge>
    <edge id="-7697" from="-59319" to="-59436" priority="-1" shape="12.21,616.33 146.40,627.94">
        <lane id="-7697_0" index="0" speed="13.89" length="134.47" width="3.00" shape="13.12,605.87 147.08,617.46"/>
        <lane id="-7697_1" index="1" speed="13.89" length="134.47" width="3.00" shape="12.86,608.86 146.82,620.45"/>
        <lane id="-7697_2" index="2" speed="13.89" length="134.47" width="3.00" shape="12.60,611.85 146.57,623.44"/>
        <lane id="-7697_3" index="3" speed="13.89" length="134.47" width="3.00" shape="12.34,614.84 146.31,626.43"/>
    </edge>
    <edge id="-7705" from="-59436" to="-59437" priority="-1" shape="146.40,627.94 220.94,634.39 221.52,634.41 351.36,632.91">
        <lane id="-7705_0" index="0" speed="13.89" length="204.41" width="3.00" shape="147.50,617.50 221.84,623.93 221.64,623.91 351.13,622.41"/>
        <lane id="-7705_1" index="1" speed="13.89" length="204.41" width="3.00" shape="147.26,620.49 221.58,626.92 351.15,625.41"/>
        <lane id="-7705_2" index="2" speed="13.89" length="204.41" width="3.00" shape="147.03,623.48 221.33,629.91 221.57,629.91 351.18,628.41"/>
        <lane id="-7705_3" index="3" speed="13.89" length="204.41" width="3.00" shape="146.79,626.47 221.07,632.90 221.54,632.91 351.20,631.41"/>
    </edge>