<?xml version="1.0" encoding="UTF-8"?>


<net version="1.9" junctionCornerDetail="5" limitTurnSpeed="5.50" xmlns:xsi="http://www.w3.org/2001/XMLSchema-instance" xsi:noNamespaceSchemaLocation="http://sumo.dlr.de/xsd/net_file.xsd">

    <location netOffset="2552.90,1784.51" convBoundary="0.00,0.00,5608.93,2681.86" origBoundary="-2552.90,-1784.51,3056.03,897.36" projParameter="!"/>

    <edge id=":Custom0_0" function="internal">
        <lane id=":Custom0_0_0" index="0" speed="3.53" length="4.38" width="3.00" shape="2976.65,42.59 2977.38,41.46 2978.13,41.07 2978.88,41.43 2979.65,42.55"/>
    </edge>
    <edge id=":Custom1_0" function="internal">
        <lane id=":Custom1_0_0" index="0" speed="3.53" length="4.38" width="3.00" shape="3020.53,2629.57 3019.80,2630.71 3019.06,2631.09 3018.30,2630.73 3017.53,2629.62"/>
    </edge>
    <edge id=":Custom10_0" function="internal">
        <lane id=":Custom10_0_0" index="0" speed="3.53" length="4.38" width="3.00" shape="4095.57,24.09 4096.30,22.96 4097.05,22.57 4097.80,22.93 4098.57,24.05"/>
    </edge>
    <edge id=":Custom11_0" function="internal">
        <lane id=":Custom11_0_0" index="0" speed="3.53" length="4.38" width="3.00" shape="4139.11,2614.56 4138.37,2615.70 4137.63,2616.08 4136.87,2615.72 4136.11,2614.61"/>
    </edge>
    <edge id=":Custom12_0" function="internal">
        <lane id=":Custom12_0_0" index="0" speed="3.53" length="4.38" width="3.00" shape="351.54,86.68 352.27,85.55 353.02,85.16 353.77,85.52 354.54,86.63"/>
    </edge>
    <edge id=":Custom13_0" function="internal">
        <lane id=":Custom13_0_0" index="0" speed="3.53" length="4.38" width="3.00" shape="396.18,2662.50 395.45,2663.64 394.71,2664.02 393.95,2663.66 393.18,2662.55"/>
    </edge>
    <edge id=":Custom14_0" function="internal">
        <lane id=":Custom14_0_0" index="0" speed="3.53" length="4.38" width="3.00" shape="5162.85,6.61 5163.58,5.47 5164.33,5.09 5165.08,5.45 5165.85,6.56"/>
    </edge>
    <edge id=":Custom15_0" function="internal">
        <lane id=":Custom15_0_0" index="0" speed="3.53" length="4.38" width="3.00" shape="5206.05,2600.01 5205.32,2601.15 5204.57,2601.54 5203.82,2601.17 5203.05,2600.06"/>
    </edge>
    <edge id=":Custom16_0" function="internal">
        <lane id=":Custom16_0_0" index="0" speed="3.53" length="4.38" width="3.00" shape="-1.50,92.69 -0.77,91.55 -0.02,91.16 0.73,91.52 1.50,92.64"/>
    </edge>
    <edge id=":Custom17_0" function="internal">
        <lane id=":Custom17_0_0" index="0" speed="3.53" length="4.38" width="3.00" shape="43.49,2681.84 42.76,2682.98 42.02,2683.36 41.26,2683.00 40.49,2681.89"/>
    </edge>
    <edge id=":Custom18_0" function="internal">
        <lane id=":Custom18_0_0" index="0" speed="3.53" length="4.38" width="3.00" shape="4422.70,18.72 4423.44,17.58 4424.18,17.19 4424.94,17.56 4425.70,18.67"/>
    </edge>
    <edge id=":Custom19_0" function="internal">
        <lane id=":Custom19_0_0" index="0" speed="3.53" length="4.38" width="3.00" shape="4466.04,2604.14 4465.31,2605.28 4464.56,2605.66 4463.81,2605.30 4463.04,2604.19"/>
    </edge>
    <edge id=":Custom2_0" function="internal">
        <lane id=":Custom2_0_0" index="0" speed="3.53" length="4.38" width="3.00" shape="3716.61,30.34 3717.34,29.20 3718.09,28.82 3718.84,29.18 3719.61,30.29"/>
    </edge>
    <edge id=":Custom20_0" function="internal">
        <lane id=":Custom20_0_0" index="0" speed="3.53" length="4.38" width="3.00" shape="730.13,80.26 730.86,79.13 731.60,78.74 732.36,79.10 733.13,80.22"/>
    </edge>
    <edge id=":Custom21_0" function="internal">
        <lane id=":Custom21_0_0" index="0" speed="3.53" length="4.38" width="3.00" shape="774.84,2668.73 774.11,2669.87 773.37,2670.26 772.61,2669.90 771.84,2668.78"/>
    </edge>
    <edge id=":Custom22_0" function="internal">
        <lane id=":Custom22_0_0" index="0" speed="3.53" length="4.38" width="3.00" shape="1082.98,74.30 1083.72,73.16 1084.46,72.78 1085.22,73.14 1085.98,74.25"/>
    </edge>
    <edge id=":Custom23_0" function="internal">
        <lane id=":Custom23_0_0" index="0" speed="3.53" length="4.38" width="3.00" shape="1127.64,2666.58 1126.91,2667.71 1126.16,2668.10 1125.41,2667.74 1124.64,2666.62"/>
    </edge>
    <edge id=":Custom24_0" function="internal">
        <lane id=":Custom24_0_0" index="0" speed="3.53" length="4.38" width="3.00" shape="1461.66,67.92 1462.39,66.78 1463.14,66.40 1463.89,66.76 1464.66,67.87"/>
    </edge>
    <edge id=":Custom25_0" function="internal">
        <lane id=":Custom25_0_0" index="0" speed="3.53" length="4.38" width="3.00" shape="1506.25,2664.28 1505.52,2665.41 1504.77,2665.80 1504.02,2665.44 1503.25,2664.33"/>
    </edge>
    <edge id=":Custom26_0" function="internal">
        <lane id=":Custom26_0_0" index="0" speed="3.53" length="4.38" width="3.00" shape="3338.21,36.60 3338.94,35.46 3339.69,35.07 3340.44,35.44 3341.21,36.55"/>
    </edge>
    <edge id=":Custom27_0" function="internal">
        <lane id=":Custom27_0_0" index="0" speed="3.53" length="4.38" width="3.00" shape="3381.88,2618.90 3381.15,2620.04 3380.41,2620.42 3379.65,2620.06 3378.88,2618.95"/>
    </edge>
    <edge id=":Custom28_0" function="internal">
        <lane id=":Custom28_0_0" index="0" speed="3.53" length="4.38" width="3.00" shape="2541.75,49.83 2542.48,48.69 2543.23,48.31 2543.98,48.67 2544.75,49.78"/>
    </edge>
    <edge id=":Custom29_0" function="internal">
        <lane id=":Custom29_0_0" index="0" speed="3.53" length="4.38" width="3.00" shape="2586.14,2657.83 2585.41,2658.97 2584.67,2659.36 2583.91,2658.99 2583.14,2657.88"/>
    </edge>
    <edge id=":Custom3_0" function="internal">
        <lane id=":Custom3_0_0" index="0" speed="3.53" length="4.38" width="3.00" shape="3760.64,2642.44 3759.91,2643.57 3759.17,2643.96 3758.41,2643.60 3757.64,2642.49"/>
    </edge>
    <edge id=":Custom30_0" function="internal">
        <lane id=":Custom30_0_0" index="0" speed="3.53" length="4.38" width="3.00" shape="4792.68,12.66 4793.42,11.52 4794.16,11.13 4794.92,11.50 4795.68,12.61"/>
    </edge>
    <edge id=":Custom31_0" function="internal">
        <lane id=":Custom31_0_0" index="0" speed="3.53" length="4.38" width="3.00" shape="4836.09,2610.64 4835.36,2611.78 4834.62,2612.16 4833.86,2611.80 4833.09,2610.69"/>
    </edge>
    <edge id=":Custom4_0" function="internal">
        <lane id=":Custom4_0_0" index="0" speed="3.53" length="4.38" width="3.00" shape="1831.82,61.70 1832.56,60.57 1833.30,60.18 1834.06,60.54 1834.82,61.66"/>
    </edge>
    <edge id=":Custom5_0" function="internal">
        <lane id=":Custom5_0_0" index="0" speed="3.53" length="4.38" width="3.00" shape="1876.20,2653.48 1875.47,2654.62 1874.72,2655.00 1873.97,2654.64 1873.20,2653.53"/>
    </edge>
    <edge id=":Custom6_0" function="internal">
        <lane id=":Custom6_0_0" index="0" speed="3.53" length="4.38" width="3.00" shape="5567.45,0.02 5568.18,-1.11 5568.92,-1.50 5569.68,-1.14 5570.44,-0.02"/>
    </edge>
    <edge id=":Custom7_0" function="internal">
        <lane id=":Custom7_0_0" index="0" speed="3.53" length="4.38" width="3.00" shape="5610.43,2589.22 5609.70,2590.35 5608.95,2590.74 5608.20,2590.38 5607.43,2589.26"/>
    </edge>
    <edge id=":Custom8_0" function="internal">
        <lane id=":Custom8_0_0" index="0" speed="3.53" length="4.38" width="3.00" shape="2158.86,56.23 2159.60,55.09 2160.34,54.70 2161.10,55.06 2161.86,56.18"/>
    </edge>
    <edge id=":Custom9_0" function="internal">
        <lane id=":Custom9_0_0" index="0" speed="3.53" length="4.38" width="3.00" shape="2203.18,2651.53 2202.45,2652.66 2201.71,2653.05 2200.95,2652.69 2200.18,2651.58"/>
    </edge>

    <edge id="--2379" from="Custom1" to="Custom0" priority="-1" shape="3019.03,2629.59 3007.52,1901.00 2993.16,992.14 2978.15,42.57">
        <lane id="--2379_0" index="0" speed="13.89" length="2587.35" width="3.00" shape="3014.53,2629.66 3003.02,1901.08 2988.66,992.21 2973.65,42.64"/>
        <lane id="--2379_1" index="1" speed="13.89" length="2587.35" width="3.00" shape="3017.53,2629.62 3006.02,1901.03 2991.66,992.16 2976.65,42.59"/>
    </edge>
    <edge id="--2380" from="Custom3" to="Custom2" priority="-1" shape="3759.14,2642.46 3747.70,1913.87 3733.43,1005.01 3718.11,30.32">
        <lane id="--2380_0" index="0" speed="13.89" length="2612.47" width="3.00" shape="3754.64,2642.53 3743.20,1913.94 3728.93,1005.08 3713.61,30.39"/>
        <lane id="--2380_1" index="1" speed="13.89" length="2612.47" width="3.00" shape="3757.64,2642.49 3746.20,1913.90 3731.93,1005.03 3716.61,30.34"/>
    </edge>
    <edge id="--2381" from="Custom5" to="Custom4" priority="-1" shape="1874.70,2653.50 1863.07,1924.92 1848.56,1016.05 1833.32,61.68">
        <lane id="--2381_0" index="0" speed="13.89" length="2592.15" width="3.00" shape="1870.20,2653.58 1858.57,1924.99 1844.06,1016.13 1828.82,61.75"/>
        <lane id="--2381_1" index="1" speed="13.89" length="2592.15" width="3.00" shape="1873.20,2653.53 1861.57,1924.94 1847.06,1016.08 1831.82,61.70"/>
    </edge>
    <edge id="--2382" from="Custom7" to="Custom6" priority="-1" shape="5608.93,2589.24 5597.68,1860.65 5583.64,951.77 5568.94,0.00">
        <lane id="--2382_0" index="0" speed="13.89" length="2589.55" width="3.00" shape="5604.43,2589.31 5593.18,1860.72 5579.14,951.84 5564.45,0.07"/>
        <lane id="--2382_1" index="1" speed="13.89" length="2589.55" width="3.00" shape="5607.43,2589.26 5596.18,1860.67 5582.14,951.80 5567.45,0.02"/>
    </edge>
    <edge id="--2383" from="Custom9" to="Custom8" priority="-1" shape="2201.68,2651.55 2190.08,1922.97 2175.62,1014.10 2160.36,56.20">
        <lane id="--2383_0" index="0" speed="13.89" length="2595.68" width="3.00" shape="2197.18,2651.62 2185.58,1923.04 2171.12,1014.17 2155.86,56.27"/>
        <lane id="--2383_1" index="1" speed="13.89" length="2595.68" width="3.00" shape="2200.18,2651.58 2188.58,1922.99 2174.12,1014.13 2158.86,56.23"/>
    </edge>
    <edge id="--2384" from="Custom11" to="Custom10" priority="-1" shape="4137.61,2614.59 4126.20,1885.99 4111.98,977.13 4097.07,24.07">
        <lane id="--2384_0" index="0" speed="13.89" length="2590.83" width="3.00" shape="4133.11,2614.66 4121.71,1886.06 4107.48,977.20 4092.57,24.14"/>
        <lane id="--2384_1" index="1" speed="13.89" length="2590.83" width="3.00" shape="4136.11,2614.61 4124.71,1886.02 4110.48,977.15 4095.57,24.09"/>
    </edge>
    <edge id="--2385" from="Custom13" to="Custom12" priority="-1" shape="394.68,2662.52 382.90,1933.94 368.21,1025.08 353.04,86.66">
        <lane id="--2385_0" index="0" speed="13.89" length="2576.20" width="3.00" shape="390.18,2662.60 378.40,1934.01 363.71,1025.15 348.54,86.73"/>
        <lane id="--2385_1" index="1" speed="13.89" length="2576.20" width="3.00" shape="393.18,2662.55 381.40,1933.96 366.71,1025.10 351.54,86.68"/>
    </edge>
    <edge id="--2386" from="Custom15" to="Custom14" priority="-1" shape="5204.55,2600.04 5193.26,1871.44 5179.17,962.57 5164.35,6.59">
        <lane id="--2386_0" index="0" speed="13.89" length="2593.76" width="3.00" shape="5200.05,2600.11 5188.76,1871.51 5174.67,962.64 5159.85,6.66"/>
        <lane id="--2386_1" index="1" speed="13.89" length="2593.76" width="3.00" shape="5203.05,2600.06 5191.76,1871.47 5177.67,962.60 5162.85,6.61"/>
    </edge>
    <edge id="--2387" from="Custom17" to="Custom16" priority="-1" shape="41.99,2681.86 30.18,1953.28 15.44,1044.42 0.00,92.66">
        <lane id="--2387_0" index="0" speed="13.89" length="2589.54" width="3.00" shape="37.49,2681.94 25.68,1953.35 10.94,1044.49 -4.50,92.73"/>
        <lane id="--2387_1" index="1" speed="13.89" length="2589.54" width="3.00" shape="40.49,2681.89 28.68,1953.30 13.94,1044.44 -1.50,92.69"/>
    </edge>
    <edge id="--2388" from="Custom19" to="Custom18" priority="-1" shape="4464.54,2604.16 4453.17,1875.57 4438.99,966.70 4424.20,18.69">
        <lane id="--2388_0" index="0" speed="13.89" length="2585.78" width="3.00" shape="4460.04,2604.23 4448.67,1875.64 4434.49,966.77 4419.70,18.76"/>
        <lane id="--2388_1" index="1" speed="13.89" length="2585.78" width="3.00" shape="4463.04,2604.19 4451.67,1875.60 4437.49,966.73 4422.70,18.72"/>
    </edge>
    <edge id="--2389" from="Custom21" to="Custom20" priority="-1" shape="773.34,2668.76 761.60,1940.17 746.95,1031.31 731.63,80.24">
        <lane id="--2389_0" index="0" speed="13.89" length="2588.85" width="3.00" shape="768.85,2668.83 757.10,1940.25 742.45,1031.39 727.13,80.31"/>
        <lane id="--2389_1" index="1" speed="13.89" length="2588.85" width="3.00" shape="771.84,2668.78 760.10,1940.20 745.45,1031.34 730.13,80.26"/>
    </edge>
    <edge id="--2390" from="Custom23" to="Custom22" priority="-1" shape="1126.14,2666.60 1114.43,1938.01 1099.83,1029.15 1084.48,74.28">
        <lane id="--2390_0" index="0" speed="13.89" length="2592.66" width="3.00" shape="1121.64,2666.67 1109.93,1938.09 1095.33,1029.23 1079.98,74.35"/>
        <lane id="--2390_1" index="1" speed="13.89" length="2592.66" width="3.00" shape="1124.64,2666.62 1112.93,1938.04 1098.33,1029.18 1082.98,74.30"/>
    </edge>
    <edge id="--2391" from="Custom25" to="Custom24" priority="-1" shape="1504.75,2664.30 1493.08,1935.72 1478.52,1026.85 1463.16,67.90">
        <lane id="--2391_0" index="0" speed="13.89" length="2596.74" width="3.00" shape="1500.25,2664.37 1488.58,1935.79 1474.03,1026.93 1458.66,67.97"/>
        <lane id="--2391_1" index="1" speed="13.89" length="2596.74" width="3.00" shape="1503.25,2664.33 1491.58,1935.74 1477.02,1026.88 1461.66,67.92"/>
    </edge>
    <edge id="--2392" from="Custom27" to="Custom26" priority="-1" shape="3380.38,2618.92 3368.91,1890.33 3354.59,981.46 3339.71,36.57">
        <lane id="--2392_0" index="0" speed="13.89" length="2582.67" width="3.00" shape="3375.88,2618.99 3364.41,1890.40 3350.09,981.53 3335.21,36.64"/>
        <lane id="--2392_1" index="1" speed="13.89" length="2582.67" width="3.00" shape="3378.88,2618.95 3367.41,1890.36 3353.09,981.49 3338.21,36.60"/>
    </edge>
    <edge id="--2393" from="Custom29" to="Custom28" priority="-1" shape="2584.64,2657.86 2573.09,1929.27 2558.67,1020.41 2543.25,49.81">
        <lane id="--2393_0" index="0" speed="13.89" length="2608.38" width="3.00" shape="2580.14,2657.93 2568.59,1929.34 2554.17,1020.48 2538.75,49.88"/>
        <lane id="--2393_1" index="1" speed="13.89" length="2608.38" width="3.00" shape="2583.14,2657.88 2571.59,1929.30 2557.17,1020.43 2541.75,49.83"/>
    </edge>
    <edge id="--2394" from="Custom31" to="Custom30" priority="-1" shape="4834.59,2610.66 4823.26,1882.07 4809.13,973.20 4794.18,12.63">
        <lane id="--2394_0" index="0" speed="13.89" length="2598.35" width="3.00" shape="4830.09,2610.73 4818.76,1882.14 4804.63,973.27 4789.68,12.70"/>
        <lane id="--2394_1" index="1" speed="13.89" length="2598.35" width="3.00" shape="4833.09,2610.69 4821.76,1882.10 4807.63,973.23 4792.68,12.66"/>
    </edge>
    <edge id="-2379" from="Custom0" to="Custom1" priority="-1" shape="2978.15,42.57 2993.16,992.14 3007.52,1901.00 3019.03,2629.59">
        <lane id="-2379_0" index="0" speed="13.89" length="2587.35" width="3.00" shape="2982.65,42.50 2997.66,992.07 3012.02,1900.93 3023.53,2629.52"/>
        <lane id="-2379_1" index="1" speed="13.89" length="2587.35" width="3.00" shape="2979.65,42.55 2994.66,992.11 3009.02,1900.98 3020.53,2629.57"/>
    </edge>
    <edge id="-2380" from="Custom2" to="Custom3" priority="-1" shape="3718.11,30.32 3733.43,1005.01 3747.70,1913.87 3759.14,2642.46">
        <lane id="-2380_0" index="0" speed="13.89" length="2612.47" width="3.00" shape="3722.61,30.25 3737.93,1004.94 3752.20,1913.80 3763.64,2642.39"/>
        <lane id="-2380_1" index="1" speed="13.89" length="2612.47" width="3.00" shape="3719.61,30.29 3734.93,1004.98 3749.20,1913.85 3760.64,2642.44"/>
    </edge>
    <edge id="-2381" from="Custom4" to="Custom5" priority="-1" shape="1833.32,61.68 1848.56,1016.05 1863.07,1924.92 1874.70,2653.50">
        <lane id="-2381_0" index="0" speed="13.89" length="2592.15" width="3.00" shape="1837.82,61.61 1853.06,1015.98 1867.57,1924.85 1879.20,2653.43"/>
        <lane id="-2381_1" index="1" speed="13.89" length="2592.15" width="3.00" shape="1834.82,61.66 1850.06,1016.03 1864.57,1924.89 1876.20,2653.48"/>
    </edge>
    <edge id="-2382" from="Custom6" to="Custom7" priority="-1" shape="5568.94,0.00 5583.64,951.77 5597.68,1860.65 5608.93,2589.24">
        <lane id="-2382_0" index="0" speed="13.89" length="2589.55" width="3.00" shape="5573.44,-0.07 5588.14,951.70 5602.18,1860.58 5613.43,2589.17"/>
        <lane id="-2382_1" index="1" speed="13.89" length="2589.55" width="3.00" shape="5570.44,-0.02 5585.14,951.75 5599.18,1860.62 5610.43,2589.22"/>
    </edge>
    <edge id="-2383" from="Custom8" to="Custom9" priority="-1" shape="2160.36,56.20 2175.62,1014.10 2190.08,1922.97 2201.68,2651.55">
        <lane id="-2383_0" index="0" speed="13.89" length="2595.68" width="3.00" shape="2164.86,56.13 2180.12,1014.03 2194.58,1922.89 2206.18,2651.48"/>
        <lane id="-2383_1" index="1" speed="13.89" length="2595.68" width="3.00" shape="2161.86,56.18 2177.12,1014.08 2191.58,1922.94 2203.18,2651.53"/>
    </edge>
    <edge id="-2384" from="Custom10" to="Custom11" priority="-1" shape="4097.07,24.07 4111.98,977.13 4126.20,1885.99 4137.61,2614.59">
        <lane id="-2384_0" index="0" speed="13.89" length="2590.83" width="3.00" shape="4101.57,24.00 4116.48,977.05 4130.70,1885.92 4142.10,2614.51"/>
        <lane id="-2384_1" index="1" speed="13.89" length="2590.83" width="3.00" shape="4098.57,24.05 4113.48,977.10 4127.70,1885.97 4139.11,2614.56"/>
    </edge>
    <edge id="-2385" from="Custom12" to="Custom13" priority="-1" shape="353.04,86.66 368.21,1025.08 382.90,1933.94 394.68,2662.52">
        <lane id="-2385_0" index="0" speed="13.89" length="2576.20" width="3.00" shape="357.54,86.59 372.70,1025.00 387.40,1933.86 399.18,2662.45"/>
        <lane id="-2385_1" index="1" speed="13.89" length="2576.20" width="3.00" shape="354.54,86.63 369.71,1025.05 384.40,1933.91 396.18,2662.50"/>
    </edge>
    <edge id="-2386" from="Custom14" to="Custom15" priority="-1" shape="5164.35,6.59 5179.17,962.57 5193.26,1871.44 5204.55,2600.04">
        <lane id="-2386_0" index="0" speed="13.89" length="2593.76" width="3.00" shape="5168.85,6.52 5183.67,962.50 5197.76,1871.37 5209.05,2599.97"/>
        <lane id="-2386_1" index="1" speed="13.89" length="2593.76" width="3.00" shape="5165.85,6.56 5180.67,962.55 5194.76,1871.42 5206.05,2600.01"/>
    </edge>
    <edge id="-2387" from="Custom16" to="Custom17" priority="-1" shape="0.00,92.66 15.44,1044.42 30.18,1953.28 41.99,2681.86">
        <lane id="-2387_0" index="0" speed="13.89" length="2589.54" width="3.00" shape="4.50,92.59 19.94,1044.35 34.68,1953.21 46.49,2681.79"/>
        <lane id="-2387_1" index="1" speed="13.89" length="2589.54" width="3.00" shape="1.50,92.64 16.94,1044.40 31.68,1953.26 43.49,2681.84"/>
    </edge>
    <edge id="-2388" from="Custom18" to="Custom19" priority="-1" shape="4424.20,18.69 4438.99,966.70 4453.17,1875.57 4464.54,2604.16">
        <lane id="-2388_0" index="0" speed="13.89" length="2585.78" width="3.00" shape="4428.70,18.62 4443.49,966.63 4457.67,1875.50 4469.04,2604.09"/>
        <lane id="-2388_1" index="1" speed="13.89" length="2585.78" width="3.00" shape="4425.70,18.67 4440.49,966.68 4454.67,1875.55 4466.04,2604.14"/>
    </edge>
    <edge id="-2389" from="Custom20" to="Custom21" priority="-1" shape="731.63,80.24 746.95,1031.31 761.60,1940.17 773.34,2668.76">
        <lane id="-2389_0" index="0" speed="13.89" length="2588.85" width="3.00" shape="736.13,80.17 751.45,1031.24 766.10,1940.10 777.84,2668.69"/>
        <lane id="-2389_1" index="1" speed="13.89" length="2588.85" width="3.00" shape="733.13,80.22 748.45,1031.29 763.10,1940.15 774.84,2668.73"/>
    </edge>
    <edge id="-2390" from="Custom22" to="Custom23" priority="-1" shape="1084.48,74.28 1099.83,1029.15 1114.43,1938.01 1126.14,2666.60">
        <lane id="-2390_0" index="0" speed="13.89" length="2592.66" width="3.00" shape="1088.98,74.21 1104.33,1029.08 1118.93,1937.94 1130.64,2666.53"/>
        <lane id="-2390_1" index="1" speed="13.89" length="2592.66" width="3.00" shape="1085.98,74.25 1101.33,1029.13 1115.93,1937.99 1127.64,2666.58"/>
    </edge>
    <edge id="-2391" from="Custom24" to="Custom25" priority="-1" shape="1463.16,67.90 1478.52,1026.85 1493.08,1935.72 1504.75,2664.30">
        <lane id="-2391_0" index="0" speed="13.89" length="2596.74" width="3.00" shape="1467.66,67.82 1483.02,1026.78 1497.58,1935.64 1509.25,2664.23"/>
        <lane id="-2391_1" index="1" speed="13.89" length="2596.74" width="3.00" shape="1464.66,67.87 1480.02,1026.83 1494.58,1935.69 1506.25,2664.28"/>
    </edge>
    <edge id="-2392" from="Custom26" to="Custom27" priority="-1" shape="3339.71,36.57 3354.59,981.46 3368.91,1890.33 3380.38,2618.92">
        <lane id="-2392_0" index="0" speed="13.89" length="2582.67" width="3.00" shape="3344.21,36.50 3359.09,981.39 3373.41,1890.26 3384.88,2618.85"/>
        <lane id="-2392_1" index="1" speed="13.89" length="2582.67" width="3.00" shape="3341.21,36.55 3356.09,981.44 3370.41,1890.31 3381.88,2618.90"/>
    </edge>
    <edge id="-2393" from="Custom28" to="Custom29" priority="-1" shape="2543.25,49.81 2558.67,1020.41 2573.09,1929.27 2584.64,2657.86">
        <lane id="-2393_0" index="0" speed="13.89" length="2608.38" width="3.00" shape="2547.75,49.74 2563.17,1020.34 2577.58,1929.20 2589.14,2657.79"/>
        <lane id="-2393_1" index="1" speed="13.89" length="2608.38" width="3.00" shape="2544.75,49.78 2560.17,1020.38 2574.59,1929.25 2586.14,2657.83"/>
    </edge>
    <edge id="-2394" from="Custom30" to="Custom31" priority="-1" shape="4794.18,12.63 4809.13,973.20 4823.26,1882.07 4834.59,2610.66">
        <lane id="-2394_0" index="0" speed="13.89" length="2598.35" width="3.00" shape="4798.68,12.56 4813.63,973.13 4827.76,1882.00 4839.09,2610.59"/>
        <lane id="-2394_1" index="1" speed="13.89" length="2598.35" width="3.00" shape="4795.68,12.61 4810.63,973.18 4824.76,1882.05 4836.09,2610.64"/>
    </edge>

    <junction id="Custom0" type="priority" x="2978.15" y="42.57" incLanes="--2379_0 --2379_1" intLanes=":Custom0_0_0" shape="2978.15,42.57 2972.15,42.66 2978.15,42.57">
        <request index="0" response="0" foes="0" cont="0"/>
    </junction>
    <junction id="Custom1" type="priority" x="3019.03" y="2629.59" incLanes="-2379_0 -2379_1" intLanes=":Custom1_0_0" shape="3019.03,2629.59 3025.03,2629.50 3019.03,2629.59">
        <request index="0" response="0" foes="0" cont="0"/>
    </junction>
    <junction id="Custom10" type="priority" x="4097.07" y="24.07" incLanes="--2384_0 --2384_1" intLanes=":Custom10_0_0" shape="4097.07,24.07 4091.07,24.16 4097.07,24.07">
        <request index="0" response="0" foes="0" cont="0"/>
    </junction>
    <junction id="Custom11" type="priority" x="4137.61" y="2614.59" incLanes="-2384_0 -2384_1" intLanes=":Custom11_0_0" shape="4137.61,2614.59 4143.60,2614.49 4137.61,2614.59">
        <request index="0" response="0" foes="0" cont="0"/>
    </junction>
    <junction id="Custom12" type="priority" x="353.04" y="86.66" incLanes="--2385_0 --2385_1" intLanes=":Custom12_0_0" shape="353.04,86.66 347.04,86.76 353.04,86.66">
        <request index="0" response="0" foes="0" cont="0"/>
    </junction>
    <junction id="Custom13" type="priority" x="394.68" y="2662.52" incLanes="-2385_0 -2385_1" intLanes=":Custom13_0_0" shape="394.68,2662.52 400.68,2662.43 394.68,2662.52">
        <request index="0" response="0" foes="0" cont="0"/>
    </junction>
    <junction id="Custom14" type="priority" x="5164.35" y="6.59" incLanes="--2386_0 --2386_1" intLanes=":Custom14_0_0" shape="5164.35,6.59 5158.35,6.68 5164.35,6.59">
        <request index="0" response="0" foes="0" cont="0"/>
    </junction>
    <junction id="Custom15" type="priority" x="5204.55" y="2600.04" incLanes="-2386_0 -2386_1" intLanes=":Custom15_0_0" shape="5204.55,2600.04 5210.55,2599.94 5204.55,2600.04">
        <request index="0" response="0" foes="0" cont="0"/>
    </junction>
    <junction id="Custom16" type="priority" x="0.00" y="92.66" incLanes="--2387_0 --2387_1" intLanes=":Custom16_0_0" shape="0.00,92.66 -6.00,92.76 0.00,92.66">
        <request index="0" response="0" foes="0" cont="0"/>
    </junction>
    <junction id="Custom17" type="priority" x="41.99" y="2681.86" incLanes="-2387_0 -2387_1" intLanes=":Custom17_0_0" shape="41.99,2681.86 47.99,2681.77 41.99,2681.86">
        <request index="0" response="0" foes="0" cont="0"/>
    </junction>
    <junction id="Custom18" type="priority" x="4424.20" y="18.69" incLanes="--2388_0 --2388_1" intLanes=":Custom18_0_0" shape="4424.20,18.69 4418.20,18.79 4424.20,18.69">
        <request index="0" response="0" foes="0" cont="0"/>
    </junction>
    <junction id="Custom19" type="priority" x="4464.54" y="2604.16" incLanes="-2388_0 -2388_1" intLanes=":Custom19_0_0" shape="4464.54,2604.16 4470.54,2604.07 4464.54,2604.16">
        <request index="0" response="0" foes="0" cont="0"/>
    </junction>
    <junction id="Custom2" type="priority" x="3718.11" y="30.32" incLanes="--2380_0 --2380_1" intLanes=":Custom2_0_0" shape="3718.11,30.32 3712.11,30.41 3718.11,30.32">
        <request index="0" response="0" foes="0" cont="0"/>
    </junction>
    <junction id="Custom20" type="priority" x="731.63" y="80.24" incLanes="--2389_0 --2389_1" intLanes=":Custom20_0_0" shape="731.63,80.24 725.63,80.34 731.63,80.24">
        <request index="0" response="0" foes="0" cont="0"/>
    </junction>
    <junction id="Custom21" type="priority" x="773.34" y="2668.76" incLanes="-2389_0 -2389_1" intLanes=":Custom21_0_0" shape="773.34,2668.76 779.34,2668.66 773.34,2668.76">
        <request index="0" response="0" foes="0" cont="0"/>
    </junction>
    <junction id="Custom22" type="priority" x="1084.48" y="74.28" incLanes="--2390_0 --2390_1" intLanes=":Custom22_0_0" shape="1084.48,74.28 1078.48,74.37 1084.48,74.28">
        <request index="0" response="0" foes="0" cont="0"/>
    </junction>
    <junction id="Custom23" type="priority" x="1126.14" y="2666.60" incLanes="-2390_0 -2390_1" intLanes=":Custom23_0_0" shape="1126.14,2666.60 1132.14,2666.50 1126.14,2666.60">
        <request index="0" response="0" foes="0" cont="0"/>
    </junction>
    <junction id="Custom24" type="priority" x="1463.16" y="67.90" incLanes="--2391_0 --2391_1" intLanes=":Custom24_0_0" shape="1463.16,67.90 1457.16,67.99 1463.16,67.90">
        <request index="0" response="0" foes="0" cont="0"/>
    </junction>
    <junction id="Custom25" type="priority" x="1504.75" y="2664.30" incLanes="-2391_0 -2391_1" intLanes=":Custom25_0_0" shape="1504.75,2664.30 1510.75,2664.21 1504.75,2664.30">
        <request index="0" response="0" foes="0" cont="0"/>
    </junction>
    <junction id="Custom26" type="priority" x="3339.71" y="36.57" incLanes="--2392_0 --2392_1" intLanes=":Custom26_0_0" shape="3339.71,36.57 3333.71,36.67 3339.71,36.57">
        <request index="0" response="0" foes="0" cont="0"/>
    </junction>
    <junction id="Custom27" type="priority" x="3380.38" y="2618.92" incLanes="-2392_0 -2392_1" intLanes=":Custom27_0_0" shape="3380.38,2618.92 3386.38,2618.83 3380.38,2618.92">
        <request index="0" response="0" foes="0" cont="0"/>
    </junction>
    <junction id="Custom28" type="priority" x="2543.25" y="49.81" incLanes="--2393_0 --2393_1" intLanes=":Custom28_0_0" shape="2543.25,49.81 2537.25,49.90 2543.25,49.81">
        <request index="0" response="0" foes="0" cont="0"/>
    </junction>
    <junction id="Custom29" type="priority" x="2584.64" y="2657.86" incLanes="-2393_0 -2393_1" intLanes=":Custom29_0_0" shape="2584.64,2657.86 2590.64,2657.76 2584.64,2657.86">
        <request index="0" response="0" foes="0" cont="0"/>
    </junction>
    <junction id="Custom3" type="priority" x="3759.14" y="2642.46" incLanes="-2380_0 -2380_1" intLanes=":Custom3_0_0" shape="3759.14,2642.46 3765.14,2642.37 3759.14,2642.46">
        <request index="0" response="0" foes="0" cont="0"/>
    </junction>
    <junction id="Custom30" type="priority" x="4794.18" y="12.63" incLanes="--2394_0 --2394_1" intLanes=":Custom30_0_0" shape="4794.18,12.63 4788.18,12.73 4794.18,12.63">
        <request index="0" response="0" foes="0" cont="0"/>
    </junction>
    <junction id="Custom31" type="priority" x="4834.59" y="2610.66" incLanes="-2394_0 -2394_1" intLanes=":Custom31_0_0" shape="4834.59,2610.66 4840.59,2610.57 4834.59,2610.66">
        <request index="0" response="0" foes="0" cont="0"/>
    </junction>
    <junction id="Custom4" type="priority" x="1833.32" y="61.68" incLanes="--2381_0 --2381_1" intLanes=":Custom4_0_0" shape="1833.32,61.68 1827.32,61.77 1833.32,61.68">
        <request index="0" response="0" foes="0" cont="0"/>
    </junction>
    <junction id="Custom5" type="priority" x="1874.70" y="2653.50" incLanes="-2381_0 -2381_1" intLanes=":Custom5_0_0" shape="1874.70,2653.50 1880.70,2653.41 1874.70,2653.50">
        <request index="0" response="0" foes="0" cont="0"/>
    </junction>
    <junction id="Custom6" type="priority" x="5568.94" y="0.00" incLanes="--2382_0 --2382_1" intLanes=":Custom6_0_0" shape="5568.94,0.00 5562.95,0.09 5568.94,0.00">
        <request index="0" response="0" foes="0" cont="0"/>
    </junction>
    <junction id="Custom7" type="priority" x="5608.93" y="2589.24" incLanes="-2382_0 -2382_1" intLanes=":Custom7_0_0" shape="5608.93,2589.24 5614.93,2589.15 5608.93,2589.24">
        <request index="0" response="0" foes="0" cont="0"/>
    </junction>
    <junction id="Custom8" type="priority" x="2160.36" y="56.20" incLanes="--2383_0 --2383_1" intLanes=":Custom8_0_0" shape="2160.36,56.20 2154.36,56.30 2160.36,56.20">
        <request index="0" response="0" foes="0" cont="0"/>
    </junction>
    <junction id="Custom9" type="priority" x="2201.68" y="2651.55" incLanes="-2383_0 -2383_1" intLanes=":Custom9_0_0" shape="2201.68,2651.55 2207.68,2651.46 2201.68,2651.55">
        <request index="0" response="0" foes="0" cont="0"/>
    </junction>
