<?xml version='1.0' encoding='UTF-8'?>

<routes xmlns:xsi="http://www.w3.org/2001/XMLSchema-instance" xsi:noNamespaceSchemaLocation="http://sumo.dlr.de/xsd/routes_file.xsd">
    <vType id="type1" maxSpeed="0.01" accel="0.01" decel="0.01" vClass="passenger"/><!--
 --><vehicle id="8" depart="0.0" type="type1">
        <route edges="-2392"/>
    </vehicle>
    <vehicle id="93" depart="0.0" type="type1">
        <route edges="-2379"/>
    </vehicle>
    <vehicle id="97" depart="0.0" type="type1">
        <route edges="--2387"/>
    </vehicle>
    <vehicle id="151" depart="0.0" type="type1">
        <route edges="--2390"/>
    </vehicle>
    <vehicle id="190" depart="0.0" type="type1">
        <route edges="-2381"/>
    </vehicle>
    <vehicle id="222" depart="0.0" type="type1">
        <route edges="-2391"/>
    </vehicle>
    <vehicle id="300" depart="0.0" type="type1">
        <route edges="-2391"/>
    </vehicle>
    <vehicle id="315" depart="0.0" type="type1">
        <route edges="--2380"/>
    </vehicle>
    <vehicle id="330" depart="0.0" type="type1">
        <route edges="--2382"/>
    </vehicle>
    <vehicle id="335" depart="0.0" type="type1">
        <route edges="--2380"/>
    </vehicle>
    <vehicle id="351" depart="52.0" type="type1">
        <route edges="-2392"/>
    </vehicle>
    <vehicle id="372" depart="52.0" type="type1">
        <route edges="--2383"/>
    </vehicle>
    <vehicle id="428" depart="52.0" type="type1">
        <route edges="--2391"/>
    </vehicle>
    <vehicle id="434" depart="52.0" type="type1">
        <route edges="--2385"/>
    </vehicle>
    <vehicle id="461" depart="52.0" type="type1">
        <route edges="--2379"/>
    </vehicle>
    <vehicle id="466" depart="52.0" type="type1">
        <route edges="--2386"/>
    </vehicle>
    <vehicle id="506" depart="52.0" type="type1">
        <route edges="--2380"/>
    </vehicle>
    <vehicle id="527" depart="52.0" type="type1">
        <route edges="-2380"/>
    </vehicle>
    <vehicle id="654" depart="52.0" type="type1">
        <route edges="--2387"/>
    </vehicle>
    <vehicle id="656" depart="52.0" type="type1">
        <route edges="-2381"/>
    </vehicle>
    <vehicle id="661" depart="104.0" type="type1">
        <route edges="--2382"/>
    </vehicle>
    <vehicle id="688" depart="104.0" type="type1">
        <route edges="--2384"/>
    </vehicle>
    <vehicle id="718" depart="104.0" type="type1">
        <route edges="-2382"/>
    </vehicle>
    <vehicle id="732" depart="104.0" type="type1">
        <route edges="-2383"/>
    </vehicle>
    <vehicle id="742" depart="104.0" type="type1">
        <route edges="-2380"/>
    </vehicle>
    <vehicle id="786" depart="104.0" type="type1">
        <route edges="--2386"/>
    </vehicle>
    <vehicle id="793" depart="104.0" type="type1">
        <route edges="-2387"/>
    </vehicle>
    <vehicle id="837" depart="104.0" type="type1">
        <route edges="-2386"/>
    </vehicle>
    <vehicle id="925" depart="104.0" type="type1">
        <route edges="--2380"/>
    </vehicle>
    <vehicle id="954" depart="104.0" type="type1">
        <route edges="-2380"/>
    </vehicle>
    <vehicle id="1010" depart="156.0" type="type1">
        <route edges="-2386"/>
    </vehicle>
    <vehicle id="1039" depart="156.0" type="type1">
        <route edges="-2391"/>
    </vehicle>
    <vehicle id="1057" depart="156.0" type="type1">
        <route edges="-2386"/>
    </vehicle>
    <vehicle id="1075" depart="156.0" type="type1">
        <route edges="--2390"/>
    </vehicle>
    <vehicle id="1076" depart="156.0" type="type1">
        <route edges="--2394"/>
    </vehicle>
    <vehicle id="1117" depart="156.0" type="type1">
        <route edges="-2390"/>
    </vehicle>
    <vehicle id="1129" depart="156.0" type="type1">
        <route edges="--2380"/>
    </vehicle>
    <vehicle id="1165" depart="156.0" type="type1">
        <route edges="--2389"/>
    </vehicle>
    <vehicle id="1168" depart="156.0" type="type1">
        <route edges="--2384"/>
    </vehicle>
    <vehicle id="1221" depart="156.0" type="type1">
        <route edges="--2380"/>
    </vehicle>
    <vehicle id="1267" depart="208.0" type="type1">
        <route edges="-2387"/>
    </vehicle>
    <vehicle id="1323" depart="208.0" type="type1">
        <route edges="--2387"/>
    </vehicle>
    <vehicle id="1367" depart="208.0" type="type1">
        <route edges="--2393"/>
    </vehicle>
    <vehicle id="1375" depart="208.0" type="type1">
        <route edges="-2380"/>
    </vehicle>
    <vehicle id="1419" depart="208.0" type="type1">
        <route edges="--2388"/>
    </vehicle>
    <vehicle id="1434" depart="208.0" type="type1">
        <route edges="--2380"/>
    </vehicle>
    <vehicle id="1457" depart="208.0" type="type1">
        <route edges="-2380"/>
    </vehicle>
    <vehicle id="1488" depart="208.0" type="type1">
        <route edges="--2383"/>
    </vehicle>
    <vehicle id="1498" depart="208.0" type="type1">
        <route edges="-2389"/>
    </vehicle>
    <vehicle id="1504" depart="208.0" type="type1">
        <route edges="--2386"/>
    </vehicle>
    <vehicle id="1560" depart="260.0" type="type1">
        <route edges="-2390"/>
    </vehicle>
    <vehicle id="1638" depart="260.0" type="type1">
        <route edges="--2393"/>
    </vehicle>
    <vehicle id="1700" depart="260.0" type="type1">
        <route edges="--2380"/>
    </vehicle>
    <vehicle id="1706" depart="260.0" type="type1">
        <route edges="-2390"/>
    </vehicle>
    <vehicle id="1800" depart="260.0" type="type1">
        <route edges="--2384"/>
    </vehicle>
    <vehicle id="1830" depart="260.0" type="type1">
        <route edges="--2389"/>
    </vehicle>
    <vehicle id="1850" depart="260.0" type="type1">
        <route edges="--2388"/>
    </vehicle>
    <vehicle id="1862" depart="260.0" type="type1">
        <route edges="--2385"/>
    </vehicle>
    <vehicle id="1876" depart="260.0" type="type1">
        <route edges="-2388"/>
    </vehicle>
    <vehicle id="1879" depart="260.0" type="type1">
        <route edges="--2393"/>
    </vehicle>
    <vehicle id="1889" depart="312.0" type="type1">
        <route edges="-2387"/>
    </vehicle>
    <vehicle id="1946" depart="312.0" type="type1">
        <route edges="--2393"/>
    </vehicle>
    <vehicle id="1967" depart="312.0" type="type1">
        <route edges="--2380"/>
    </vehicle>
    <vehicle id="1969" depart="312.0" type="type1">
        <route edges="--2393"/>
    </vehicle>
    <vehicle id="2017" depart="312.0" type="type1">
        <route edges="-2394"/>
    </vehicle>
    <vehicle id="2018" depart="312.0" type="type1">
        <route edges="-2381"/>
    </vehicle>
    <vehicle id="2065" depart="312.0" type="type1">
        <route edges="--2380"/>
    </vehicle>
    <vehicle id="2075" depart="312.0" type="type1">
        <route edges="-2393"/>
    </vehicle>
    <vehicle id="2086" depart="312.0" type="type1">
        <route edges="--2387"/>
    </vehicle>
    <vehicle id="2115" depart="312.0" type="type1">
        <route edges="--2389"/>
    </vehicle>
    <vehicle id="2116" depart="364.0" type="type1">
        <route edges="-2384"/>
    </vehicle>
    <vehicle id="2130" depart="364.0" type="type1">
        <route edges="--2384"/>
    </vehicle>
    <vehicle id="2138" depart="364.0" type="type1">
        <route edges="--2386"/>
    </vehicle>
    <vehicle id="2181" depart="364.0" type="type1">
        <route edges="--2387"/>
    </vehicle>
    <vehicle id="2264" depart="364.0" type="type1">
        <route edges="-2386"/>
    </vehicle>
    <vehicle id="2284" depart="364.0" type="type1">
        <route edges="-2385"/>
    </vehicle>
    <vehicle id="2310" depart="364.0" type="type1">
        <route edges="--2394"/>
    </vehicle>
    <vehicle id="2363" depart="364.0" type="type1">
        <route edges="--2387"/>
    </vehicle>
    <vehicle id="2411" depart="364.0" type="type1">
        <route edges="-2394"/>
    </vehicle>
    <vehicle id="2493" depart="364.0" type="type1">
        <route edges="--2381"/>
    </vehicle>
    <vehicle id="2502" depart="416.0" type="type1">
        <route edges="--2393"/>
    </vehicle>
    <vehicle id="2524" depart="416.0" type="type1">
        <route edges="--2386"/>
    </vehicle>
    <vehicle id="2609" depart="416.0" type="type1">
        <route edges="-2385"/>
    </vehicle>
    <vehicle id="2614" depart="416.0" type="type1">
        <route edges="--2387"/>
    </vehicle>
    <vehicle id="2649" depart="416.0" type="type1">
        <route edges="-2386"/>
    </vehicle>
    <vehicle id="2686" depart="416.0" type="type1">
        <route edges="--2383"/>
    </vehicle>
    <vehicle id="2716" depart="416.0" type="type1">
        <route edges="-2393"/>
    </vehicle>
    <vehicle id="2745" depart="416.0" type="type1">
        <route edges="-2382"/>
    </vehicle>
    <vehicle id="2837" depart="416.0" type="type1">
        <route edges="-2389"/>
    </vehicle>
    <vehicle id="2899" depart="416.0" type="type1">
        <route edges="--2391"/>
    </vehicle>
    <vehicle id="2912" depart="468.0" type="type1">
        <route edges="-2393"/>
    </vehicle>
    <vehicle id="2920" depart="468.0" type="type1">
        <route edges="-2386"/>
    </vehicle>
    <vehicle id="3068" depart="468.0" type="type1">
        <route edges="-2394"/>
    </vehicle>
    <vehicle id="3074" depart="468.0" type="type1">
        <route edges="--2392"/>
    </vehicle>
    <vehicle id="3079" depart="468.0" type="type1">
        <route edges="-2387"/>
    </vehicle>
    <vehicle id="3096" depart="468.0" type="type1">
        <route edges="--2383"/>
    </vehicle>
    <vehicle id="3224" depart="468.0" type="type1">
        <route edges="--2389"/>
    </vehicle>
    <vehicle id="3234" depart="468.0" type="type1">
        <route edges="--2385"/>
    </vehicle>
    <vehicle id="3277" depart="468.0" type="type1">
        <route edges="--2393"/>
    </vehicle>
    <vehicle id="3302" depart="468.0" type="type1">
        <route edges="-2389"/>
    </vehicle>
    <vehicle id="3306" depart="520.0" type="type1">
        <route edges="--2392"/>
    </vehicle>
    <vehicle id="3329" depart="520.0" type="type1">
        <route edges="--2383"/>
    </vehicle>
    <vehicle id="3330" depart="520.0" type="type1">
        <route edges="-2384"/>
    </vehicle>
    <vehicle id="3369" depart="520.0" type="type1">
        <route edges="--2394"/>
    </vehicle>
    <vehicle id="3383" depart="520.0" type="type1">
        <route edges="-2382"/>
    </vehicle>
    <vehicle id="3410" depart="520.0" type="type1">
        <route edges="-2391"/>
    </vehicle>
    <vehicle id="3422" depart="520.0" type="type1">
        <route edges="-2385"/>
    </vehicle>
    <vehicle id="3460" depart="520.0" type="type1">
        <route edges="-2380"/>
    </vehicle>
    <vehicle id="3462" depart="520.0" type="type1">
        <route edges="-2385"/>
    </vehicle>
    <vehicle id="3467" depart="520.0" type="type1">
        <route edges="-2386"/>
    </vehicle>
    <vehicle id="3474" depart="572.0" type="type1">
        <route edges="--2387"/>
    </vehicle>
    <vehicle id="3567" depart="572.0" type="type1">
        <route edges="-2388"/>
    </vehicle>
    <vehicle id="3574" depart="572.0" type="type1">
        <route edges="--2384"/>
    </vehicle>
    <vehicle id="3584" depart="572.0" type="type1">
        <route edges="-2390"/>
    </vehicle>
    <vehicle id="3588" depart="572.0" type="type1">
        <route edges="-2382"/>
    </vehicle>
    <vehicle id="3683" depart="572.0" type="type1">
        <route edges="--2390"/>
    </vehicle>
    <vehicle id="3727" depart="572.0" type="type1">
        <route edges="--2381"/>
    </vehicle>
    <vehicle id="3731" depart="572.0" type="type1">
        <route edges="-2381"/>
    </vehicle>
    <vehicle id="3782" depart="572.0" type="type1">
        <route edges="-2383"/>
    </vehicle>
    <vehicle id="3810" depart="572.0" type="type1">
        <route edges="--2393"/>
    </vehicle>
    <vehicle id="3877" depart="624.0" type="type1">
        <route edges="--2385"/>
    </vehicle>
    <vehicle id="3881" depart="624.0" type="type1">
        <route edges="--2387"/>
    </vehicle>
    <vehicle id="3956" depart="624.0" type="type1">
        <route edges="-2387"/>
    </vehicle>
    <vehicle id="3969" depart="624.0" type="type1">
        <route edges="-2393"/>
    </vehicle>
    <vehicle id="4084" depart="624.0" type="type1">
        <route edges="-2386"/>
    </vehicle>
    <vehicle id="4142" depart="624.0" type="type1">
        <route edges="--2393"/>
    </vehicle>
    <vehicle id="4150" depart="624.0" type="type1">
        <route edges="--2392"/>
    </vehicle>
    <vehicle id="4236" depart="624.0" type="type1">
        <route edges="--2381"/>
    </vehicle>
    <vehicle id="4268" depart="624.0" type="type1">
        <route edges="-2384"/>
    </vehicle>
    <vehicle id="4283" depart="624.0" type="type1">
        <route edges="--2383"/>
    </vehicle>
    <vehicle id="4294" depart="676.0" type="type1">
        <route edges="-2387"/>
    </vehicle>
    <vehicle id="4322" depart="676.0" type="type1">
        <route edges="-2381"/>
    </vehicle>
    <vehicle id="4324" depart="676.0" type="type1">
        <route edges="--2380"/>
    </vehicle>
    <vehicle id="4377" depart="676.0" type="type1">
        <route edges="-2394"/>
    </vehicle>
    <vehicle id="4434" depart="676.0" type="type1">
        <route edges="--2394"/>
    </vehicle>
    <vehicle id="4448" depart="676.0" type="type1">
        <route edges="-2393"/>
    </vehicle>
    <vehicle id="4491" depart="676.0" type="type1">
        <route edges="--2393"/>
    </vehicle>
    <vehicle id="4507" depart="676.0" type="type1">
        <route edges="-2384"/>
    </vehicle>
    <vehicle id="4511" depart="676.0" type="type1">
        <route edges="--2389"/>
    </vehicle>
    <vehicle id="4536" depart="676.0" type="type1">
        <route edges="-2385"/>
    </vehicle>
    <vehicle id="4592" depart="728.0" type="type1">
        <route edges="-2390"/>
    </vehicle>
    <vehicle id="4609" depart="728.0" type="type1">
        <route edges="-2389"/>
    </vehicle>
    <vehicle id="4653" depart="728.0" type="type1">
        <route edges="--2392"/>
    </vehicle>
    <vehicle id="4668" depart="728.0" type="type1">
        <route edges="--2391"/>
    </vehicle>
    <vehicle id="4680" depart="728.0" type="type1">
        <route edges="-2387"/>
    </vehicle>
    <vehicle id="4689" depart="728.0" type="type1">
        <route edges="-2391"/>
    </vehicle>
    <vehicle id="4717" depart="728.0" type="type1">
        <route edges="--2379"/>
    </vehicle>
    <vehicle id="4730" depart="728.0" type="type1">
        <route edges="--2386"/>
    </vehicle>
    <vehicle id="4736" depart="728.0" type="type1">
        <route edges="--2386"/>
    </vehicle>
    <vehicle id="4764" depart="728.0" type="type1">
        <route edges="--2391"/>
    </vehicle>
    <vehicle id="4868" depart="780.0" type="type1">
        <route edges="--2379"/>
    </vehicle>
    <vehicle id="4870" depart="780.0" type="type1">
        <route edges="-2393"/>
    </vehicle>
    <vehicle id="4902" depart="780.0" type="type1">
        <route edges="--2393"/>
    </vehicle>
    <vehicle id="4904" depart="780.0" type="type1">
        <route edges="--2381"/>
    </vehicle>
    <vehicle id="4912" depart="780.0" type="type1">
        <route edges="--2384"/>
    </vehicle>
    <vehicle id="4942" depart="780.0" type="type1">
        <route edges="--2391"/>
    </vehicle>
    <vehicle id="4957" depart="780.0" type="type1">
        <route edges="-2392"/>
    </vehicle>
    <vehicle id="4958" depart="780.0" type="type1">
        <route edges="-2387"/>
    </vehicle>
    <vehicle id="4968" depart="780.0" type="type1">
        <route edges="-2387"/>
    </vehicle>
    <vehicle id="5003" depart="780.0" type="type1">
        <route edges="-2384"/>
    </vehicle>
    <vehicle id="5049" depart="832.0" type="type1">
        <route edges="-2383"/>
    </vehicle>
    <vehicle id="5056" depart="832.0" type="type1">
        <route edges="--2388"/>
    </vehicle>
    <vehicle id="5063" depart="832.0" type="type1">
        <route edges="-2379"/>
    </vehicle>
    <vehicle id="5154" depart="832.0" type="type1">
        <route edges="-2393"/>
    </vehicle>
    <vehicle id="5160" depart="832.0" type="type1">
        <route edges="--2394"/>
    </vehicle>
    <vehicle id="5162" depart="832.0" type="type1">
        <route edges="-2386"/>
    </vehicle>
    <vehicle id="5170" depart="832.0" type="type1">
        <route edges="-2386"/>
    </vehicle>
    <vehicle id="5212" depart="832.0" type="type1">
        <route edges="--2393"/>
    </vehicle>
    <vehicle id="5221" depart="832.0" type="type1">
        <route edges="-2394"/>
    </vehicle>
    <vehicle id="5229" depart="832.0" type="type1">
        <route edges="-2386"/>
    </vehicle>
    <vehicle id="5231" depart="884.0" type="type1">
        <route edges="-2388"/>
    </vehicle>
    <vehicle id="5232" depart="884.0" type="type1">
        <route edges="-2394"/>
    </vehicle>
    <vehicle id="5233" depart="884.0" type="type1">
        <route edges="--2387"/>
    </vehicle>
    <vehicle id="5237" depart="884.0" type="type1">
        <route edges="-2394"/>
    </vehicle>
    <vehicle id="5246" depart="884.0" type="type1">
        <route edges="-2389"/>
    </vehicle>
    <vehicle id="5251" depart="884.0" type="type1">
        <route edges="-2394"/>
    </vehicle>
    <vehicle id="5284" depart="884.0" type="type1">
        <route edges="--2387"/>
    </vehicle>
    <vehicle id="5293" depart="884.0" type="type1">
        <route edges="-2381"/>
    </vehicle>
    <vehicle id="5298" depart="884.0" type="type1">
        <route edges="--2381"/>
    </vehicle>
    <vehicle id="5316" depart="884.0" type="type1">
        <route edges="--2380"/>
    </vehicle>
    <vehicle id="5392" depart="936.0" type="type1">
        <route edges="-2382"/>
    </vehicle>
    <vehicle id="5446" depart="936.0" type="type1">
        <route edges="--2393"/>
    </vehicle>
    <vehicle id="5453" depart="936.0" type="type1">
        <route edges="-2381"/>
    </vehicle>
    <vehicle id="5537" depart="936.0" type="type1">
        <route edges="-2392"/>
    </vehicle>
    <vehicle id="5614" depart="936.0" type="type1">
        <route edges="-2385"/>
    </vehicle>
    <vehicle id="5792" depart="936.0" type="type1">
        <route edges="-2391"/>
    </vehicle>
    <vehicle id="5795" depart="936.0" type="type1">
        <route edges="--2392"/>
    </vehicle>
    <vehicle id="5800" depart="936.0" type="type1">
        <route edges="-2380"/>
    </vehicle>
    <vehicle id="5812" depart="936.0" type="type1">
        <route edges="-2381"/>
    </vehicle>
    <vehicle id="5834" depart="936.0" type="type1">
        <route edges="--2385"/>
    </vehicle>
    <vehicle id="5837" depart="988.0" type="type1">
        <route edges="--2383"/>
    </vehicle>
    <vehicle id="5860" depart="988.0" type="type1">
        <route edges="-2389"/>
    </vehicle>
    <vehicle id="5876" depart="988.0" type="type1">
        <route edges="-2394"/>
    </vehicle>
    <vehicle id="5879" depart="988.0" type="type1">
        <route edges="--2393"/>
    </vehicle>
    <vehicle id="5909" depart="988.0" type="type1">
        <route edges="--2387"/>
    </vehicle>
    <vehicle id="5931" depart="988.0" type="type1">
        <route edges="--2390"/>
    </vehicle>
    <vehicle id="5989" depart="988.0" type="type1">
        <route edges="--2393"/>
    </vehicle>
    <vehicle id="6084" depart="988.0" type="type1">
        <route edges="--2393"/>
    </vehicle>
    <vehicle id="6090" depart="988.0" type="type1">
        <route edges="--2390"/>
    </vehicle>
    <vehicle id="6157" depart="988.0" type="type1">
        <route edges="--2380"/>
    </vehicle>
    <vehicle id="6163" depart="1040.0" type="type1">
        <route edges="-2383"/>
    </vehicle>
    <vehicle id="6174" depart="1040.0" type="type1">
        <route edges="-2379"/>
    </vehicle>
    <vehicle id="6242" depart="1040.0" type="type1">
        <route edges="-2386"/>
    </vehicle>
    <vehicle id="6261" depart="1040.0" type="type1">
        <route edges="--2387"/>
    </vehicle>
    <vehicle id="6306" depart="1040.0" type="type1">
        <route edges="-2391"/>
    </vehicle>
    <vehicle id="6309" depart="1040.0" type="type1">
        <route edges="-2384"/>
    </vehicle>
    <vehicle id="6351" depart="1040.0" type="type1">
        <route edges="-2380"/>
    </vehicle>
    <vehicle id="6362" depart="1040.0" type="type1">
        <route edges="-2382"/>
    </vehicle>
    <vehicle id="6365" depart="1040.0" type="type1">
        <route edges="-2388"/>
    </vehicle>
    <vehicle id="6413" depart="1040.0" type="type1">
        <route edges="-2383"/>
    </vehicle>
    <vehicle id="6421" depart="1092.0" type="type1">
        <route edges="-2381"/>
    </vehicle>
    <vehicle id="6451" depart="1092.0" type="type1">
        <route edges="-2380"/>
    </vehicle>
    <vehicle id="6465" depart="1092.0" type="type1">
        <route edges="--2394"/>
    </vehicle>
    <vehicle id="6475" depart="1092.0" type="type1">
        <route edges="--2384"/>
    </vehicle>
    <vehicle id="6478" depart="1092.0" type="type1">
        <route edges="--2392"/>
    </vehicle>
    <vehicle id="6483" depart="1092.0" type="type1">
        <route edges="-2391"/>
    </vehicle>
    <vehicle id="6492" depart="1092.0" type="type1">
        <route edges="-2381"/>
    </vehicle>
    <vehicle id="6517" depart="1092.0" type="type1">
        <route edges="--2389"/>
    </vehicle>
    <vehicle id="6581" depart="1092.0" type="type1">
        <route edges="-2384"/>
    </vehicle>
    <vehicle id="6588" depart="1092.0" type="type1">
        <route edges="-2382"/>
    </vehicle>
    <vehicle id="6610" depart="1144.0" type="type1">
        <route edges="-2394"/>
    </vehicle>
    <vehicle id="6638" depart="1144.0" type="type1">
        <route edges="-2394"/>
    </vehicle>
    <vehicle id="6640" depart="1144.0" type="type1">
        <route edges="--2393"/>
    </vehicle>
    <vehicle id="6662" depart="1144.0" type="type1">
        <route edges="-2383"/>
    </vehicle>
    <vehicle id="6683" depart="1144.0" type="type1">
        <route edges="--2385"/>
    </vehicle>
    <vehicle id="6712" depart="1144.0" type="type1">
        <route edges="--2380"/>
    </vehicle>
    <vehicle id="6760" depart="1144.0" type="type1">
        <route edges="--2380"/>
    </vehicle>
    <vehicle id="6814" depart="1144.0" type="type1">
        <route edges="--2380"/>
    </vehicle>
    <vehicle id="6850" depart="1144.0" type="type1">
        <route edges="-2393"/>
    </vehicle>
    <vehicle id="6875" depart="1144.0" type="type1">
        <route edges="-2383"/>
    </vehicle>
    <vehicle id="6909" depart="1196.0" type="type1">
        <route edges="--2388"/>
    </vehicle>
    <vehicle id="6930" depart="1196.0" type="type1">
        <route edges="--2388"/>
    </vehicle>
    <vehicle id="6962" depart="1196.0" type="type1">
        <route edges="--2382"/>
    </vehicle>
    <vehicle id="6998" depart="1196.0" type="type1">
        <route edges="--2387"/>
    </vehicle>
    <vehicle id="7026" depart="1196.0" type="type1">
        <route edges="--2379"/>
    </vehicle>
    <vehicle id="7044" depart="1196.0" type="type1">
        <route edges="-2391"/>
    </vehicle>
    <vehicle id="7088" depart="1196.0" type="type1">
        <route edges="-2380"/>
    </vehicle>
    <vehicle id="7102" depart="1196.0" type="type1">
        <route edges="-2393"/>
    </vehicle>
    <vehicle id="7171" depart="1196.0" type="type1">
        <route edges="--2391"/>
    </vehicle>
    <vehicle id="7180" depart="1196.0" type="type1">
        <route edges="-2386"/>
    </vehicle>
    <vehicle id="7246" depart="1248.0" type="type1">
        <route edges="--2388"/>
    </vehicle>
    <vehicle id="7287" depart="1248.0" type="type1">
        <route edges="-2384"/>
    </vehicle>
    <vehicle id="7293" depart="1248.0" type="type1">
        <route edges="--2380"/>
    </vehicle>
    <vehicle id="7308" depart="1248.0" type="type1">
        <route edges="-2381"/>
    </vehicle>
    <vehicle id="7325" depart="1248.0" type="type1">
        <route edges="-2383"/>
    </vehicle>
    <vehicle id="7372" depart="1248.0" type="type1">
        <route edges="--2382"/>
    </vehicle>
    <vehicle id="7377" depart="1248.0" type="type1">
        <route edges="--2380"/>
    </vehicle>
    <vehicle id="7378" depart="1248.0" type="type1">
        <route edges="--2382"/>
    </vehicle>
    <vehicle id="7384" depart="1248.0" type="type1">
        <route edges="--2391"/>
    </vehicle>
    <vehicle id="7406" depart="1248.0" type="type1">
        <route edges="-2390"/>
    </vehicle>
    <vehicle id="7468" depart="1300.0" type="type1">
        <route edges="--2381"/>
    </vehicle>
    <vehicle id="7473" depart="1300.0" type="type1">
        <route edges="--2379"/>
    </vehicle>
    <vehicle id="7533" depart="1300.0" type="type1">
        <route edges="-2393"/>
    </vehicle>
    <vehicle id="7585" depart="1300.0" type="type1">
        <route edges="-2386"/>
    </vehicle>
    <vehicle id="7594" depart="1300.0" type="type1">
        <route edges="--2384"/>
    </vehicle>
    <vehicle id="7645" depart="1300.0" type="type1">
        <route edges="-2379"/>
    </vehicle>
    <vehicle id="7691" depart="1300.0" type="type1">
        <route edges="-2389"/>
    </vehicle>
    <vehicle id="7709" depart="1300.0" type="type1">
        <route edges="-2387"/>
    </vehicle>
    <vehicle id="7736" depart="1300.0" type="type1">
        <route edges="--2388"/>
    </vehicle>
    <vehicle id="7745" depart="1300.0" type="type1">
        <route edges="-2386"/>
    </vehicle>
    <vehicle id="7855" depart="1352.0" type="type1">
        <route edges="--2383"/>
    </vehicle>
    <vehicle id="7881" depart="1352.0" type="type1">
        <route edges="-2388"/>
    </vehicle>
    <vehicle id="7883" depart="1352.0" type="type1">
        <route edges="-2379"/>
    </vehicle>
    <vehicle id="7884" depart="1352.0" type="type1">
        <route edges="--2379"/>
    </vehicle>
    <vehicle id="7888" depart="1352.0" type="type1">
        <route edges="-2379"/>
    </vehicle>
    <vehicle id="7929" depart="1352.0" type="type1">
        <route edges="-2389"/>
    </vehicle>
    <vehicle id="7933" depart="1352.0" type="type1">
        <route edges="--2391"/>
    </vehicle>
    <vehicle id="7939" depart="1352.0" type="type1">
        <route edges="--2390"/>
    </vehicle>
    <vehicle id="7968" depart="1352.0" type="type1">
        <route edges="--2393"/>
    </vehicle>
    <vehicle id="7975" depart="1352.0" type="type1">
        <route edges="--2383"/>
    </vehicle>
    <vehicle id="7983" depart="1404.0" type="type1">
        <route edges="-2393"/>
    </vehicle>
    <vehicle id="7984" depart="1404.0" type="type1">
        <route edges="-2391"/>
    </vehicle>
    <vehicle id="7998" depart="1404.0" type="type1">
        <route edges="-2388"/>
    </vehicle>
    <vehicle id="8033" depart="1404.0" type="type1">
        <route edges="--2380"/>
    </vehicle>
    <vehicle id="8041" depart="1404.0" type="type1">
        <route edges="--2393"/>
    </vehicle>
    <vehicle id="8058" depart="1404.0" type="type1">
        <route edges="-2389"/>
    </vehicle>
    <vehicle id="8134" depart="1404.0" type="type1">
        <route edges="-2379"/>
    </vehicle>
    <vehicle id="8147" depart="1404.0" type="type1">
        <route edges="-2385"/>
    </vehicle>
    <vehicle id="8205" depart="1404.0" type="type1">
        <route edges="--2389"/>
    </vehicle>
    <vehicle id="8255" depart="1404.0" type="type1">
        <route edges="-2392"/>
    </vehicle>
    <vehicle id="8259" depart="1456.0" type="type1">
        <route edges="-2391"/>
    </vehicle>
    <vehicle id="8312" depart="1456.0" type="type1">
        <route edges="--2382"/>
    </vehicle>
    <vehicle id="8353" depart="1456.0" type="type1">
        <route edges="-2380"/>
    </vehicle>
    <vehicle id="8370" depart="1456.0" type="type1">
        <route edges="-2388"/>
    </vehicle>
    <vehicle id="8392" depart="1456.0" type="type1">
        <route edges="-2385"/>
    </vehicle>
    <vehicle id="8438" depart="1456.0" type="type1">
        <route edges="-2380"/>
    </vehicle>
    <vehicle id="8484" depart="1456.0" type="type1">
        <route edges="--2390"/>
    </vehicle>
    <vehicle id="8521" depart="1456.0" type="type1">
        <route edges="--2383"/>
    </vehicle>
    <vehicle id="8531" depart="1456.0" type="type1">
        <route edges="--2385"/>
    </vehicle>
    <vehicle id="8542" depart="1456.0" type="type1">
        <route edges="-2393"/>
    </vehicle>
    <vehicle id="8562" depart="1508.0" type="type1">
        <route edges="--2385"/>
    </vehicle>
    <vehicle id="8564" depart="1508.0" type="type1">
        <route edges="-2384"/>
    </vehicle>
    <vehicle id="8585" depart="1508.0" type="type1">
        <route edges="-2389"/>
    </vehicle>
    <vehicle id="8614" depart="1508.0" type="type1">
        <route edges="-2391"/>
    </vehicle>
    <vehicle id="8628" depart="1508.0" type="type1">
        <route edges="-2391"/>
    </vehicle>
    <vehicle id="8657" depart="1508.0" type="type1">
        <route edges="--2381"/>
    </vehicle>
    <vehicle id="8661" depart="1508.0" type="type1">
        <route edges="-2385"/>
    </vehicle>
    <vehicle id="8664" depart="1508.0" type="type1">
        <route edges="-2380"/>
    </vehicle>
    <vehicle id="8690" depart="1508.0" type="type1">
        <route edges="-2392"/>
    </vehicle>
    <vehicle id="8760" depart="1508.0" type="type1">
        <route edges="-2379"/>
    </vehicle>
    <vehicle id="8778" depart="1560.0" type="type1">
        <route edges="-2393"/>
    </vehicle>
    <vehicle id="8784" depart="1560.0" type="type1">