<?xml version='1.0' encoding='UTF-8'?>
<edges>
  <edge id="-2379" from="Custom0" to="Custom1" numLanes="2" width="3.0" shape="425.253844,-1741.936544 440.258929,-792.369174 454.622421,116.497659 466.136632,845.086840 "/>
  <edge id="--2379" to="Custom0" from="Custom1" numLanes="2" width="3.0" shape="466.136632,845.086840 454.622421,116.497659 440.258929,-792.369174 425.253844,-1741.936544 "/>
  <edge id="-2380" from="Custom2" to="Custom3" numLanes="2" width="3.0" shape="1165.212848,-1754.190471 1180.536782,-779.498648 1194.806472,129.366820 1206.245475,857.954906 "/>
  <edge id="--2380" to="Custom2" from="Custom3" numLanes="2" width="3.0" shape="1206.245475,857.954906 1194.806472,129.366820 1180.536782,-779.498648 1165.212848,-1754.190471 "/>
  <edge id="-2381" from="Custom4" to="Custom5" numLanes="2" width="3.0" shape="-719.572583,-1722.827504 -704.334938,-768.453184 -689.826424,140.410276 -678.195941,868.996752 "/>
  <edge id="--2381" to="Custom4" from="Custom5" numLanes="2" width="3.0" shape="-678.195941,868.996752 -689.826424,140.410276 -704.334938,-768.453184 -719.572583,-1722.827504 "/>
  <edge id="-2382" from="Custom6" to="Custom7" numLanes="2" width="3.0" shape="3016.048185,-1784.506607 3030.746339,-832.733104 3044.781614,76.139742 3056.032673,804.733745 "/>
  <edge id="--2382" to="Custom6" from="Custom7" numLanes="2" width="3.0" shape="3056.032673,804.733745 3044.781614,76.139742 3030.746339,-832.733104 3016.048185,-1784.506607 "/>
  <edge id="-2383" from="Custom8" to="Custom9" numLanes="2" width="3.0" shape="-392.532897,-1728.304977 -377.279515,-770.405258 -362.812440,138.458549 -351.215182,867.045303 "/>
  <edge id="--2383" to="Custom8" from="Custom9" numLanes="2" width="3.0" shape="-351.215182,867.045303 -362.812440,138.458549 -377.279515,-770.405258 -392.532897,-1728.304977 "/>
  <edge id="-2384" from="Custom10" to="Custom11" numLanes="2" width="3.0" shape="1544.171735,-1760.436582 1559.086374,-807.381542 1573.308108,101.487567 1584.708663,830.078572 "/>
  <edge id="--2384" to="Custom10" from="Custom11" numLanes="2" width="3.0" shape="1584.708663,830.078572 1573.308108,101.487567 1559.086374,-807.381542 1544.171735,-1760.436582 "/>
  <edge id="-2385" from="Custom12" to="Custom13" numLanes="2" width="3.0" shape="-2199.853756,-1697.848322 -2184.691363,-759.431005 -2169.995278,149.430889 -2158.214407,878.016110 "/>
  <edge id="--2385" to="Custom12" from="Custom13" numLanes="2" width="3.0" shape="-2158.214407,878.016110 -2169.995278,149.430889 -2184.691363,-759.431005 -2199.853756,-1697.848322 "/>
  <edge id="-2386" from="Custom14" to="Custom15" numLanes="2" width="3.0" shape="2611.454815,-1777.920270 2626.275687,-821.934179 2640.362207,86.937153 2651.654352,815.529943 "/>
  <edge id="--2386" to="Custom14" from="Custom15" numLanes="2" width="3.0" shape="2651.654352,815.529943 2640.362207,86.937153 2626.275687,-821.934179 2611.454815,-1777.920270 "/>
  <edge id="-2387" from="Custom16" to="Custom17" numLanes="2" width="3.0" shape="-2552.896805,-1691.845741 -2537.459968,-740.086349 -2522.719188,168.773017 -2510.902484,897.356211 "/>
  <edge id="--2387" to="Custom16" from="Custom17" numLanes="2" width="3.0" shape="-2510.902484,897.356211 -2522.719188,168.773017 -2537.459968,-740.086349 -2552.896805,-1691.845741 "/>
  <edge id="-2388" from="Custom18" to="Custom19" numLanes="2" width="3.0" shape="1871.306596,-1765.812415 1886.094531,-817.804926 1900.274836,91.065609 1911.642173,819.657762 "/>
  <edge id="--2388" to="Custom18" from="Custom19" numLanes="2" width="3.0" shape="1911.642173,819.657762 1900.274836,91.065609 1886.094531,-817.804926 1871.306596,-1765.812415 "/>
  <edge id="-2389" from="Custom20" to="Custom21" numLanes="2" width="3.0" shape="-1821.270869,-1704.265836 -1805.942796,-753.193610 -1791.294704,155.667605 -1779.552311,884.252282 "/>
  <edge id="--2389" to="Custom20" from="Custom21" numLanes="2" width="3.0" shape="-1779.552311,884.252282 -1791.294704,155.667605 -1805.942796,-753.193610 -1821.270869,-1704.265836 "/>
  <edge id="-2390" from="Custom22" to="Custom23" numLanes="2" width="3.0" shape="-1468.413328,-1710.229279 -1453.067543,-755.353348 -1438.464162,153.508241 -1426.757618,882.093216 "/>
  <edge id="--2390" to="Custom22" from="Custom23" numLanes="2" width="3.0" shape="-1426.757618,882.093216 -1438.464162,153.508241 -1453.067543,-755.353348 -1468.413328,-1710.229279 "/>
  <edge id="-2391" from="Custom24" to="Custom25" numLanes="2" width="3.0" shape="-1089.736560,-1716.609770 -1074.372183,-757.651807 -1059.816785,151.210182 -1048.148712,879.795479 "/>
  <edge id="--2391" to="Custom24" from="Custom25" numLanes="2" width="3.0" shape="-1048.148712,879.795479 -1059.816785,151.210182 -1074.372183,-757.651807 -1089.736560,-1716.609770 "/>
  <edge id="-2392" from="Custom26" to="Custom27" numLanes="2" width="3.0" shape="786.813042,-1747.933601 801.692436,-803.042681 816.010136,105.825617 827.487632,834.415973 "/>
  <edge id="--2392" to="Custom26" from="Custom27" numLanes="2" width="3.0" shape="827.487632,834.415973 816.010136,105.825617 801.692436,-803.042681 786.813042,-1747.933601 "/>
  <edge id="-2393" from="Custom28" to="Custom29" numLanes="2" width="3.0" shape="-9.644949,-1734.698886 5.770093,-764.097817 20.188630,144.765319 31.746972,873.351535 "/>
  <edge id="--2393" to="Custom28" from="Custom29" numLanes="2" width="3.0" shape="31.746972,873.351535 20.188630,144.765319 5.770093,-764.097817 -9.644949,-1734.698886 "/>
  <edge id="-2394" from="Custom30" to="Custom31" numLanes="2" width="3.0" shape="2241.287401,-1771.874361 2256.232959,-811.304595 2270.366362,97.565262 2281.696096,826.156867 "/>
  <edge id="--2394" to="Custom30" from="Custom31" numLanes="2" width="3.0" shape="2281.696096,826.156867 2270.366362,97.565262 2256.232959,-811.304595 2241.287401,-1771.874361 "/>
</edges>
