<?xml version='1.0' encoding='UTF-8'?>
<nodes>
  <node id="Custom0" x="425.253844" y="-1741.936544"/>
  <node id="Custom1" x="466.1366320000002" y="845.0868400000002"/>
  <node id="Custom2" x="1165.212848" y="-1754.190471"/>
  <node id="Custom3" x="1206.2454750000002" y="857.9549059999999"/>
  <node id="Custom4" x="-719.572583" y="-1722.827504"/>
  <node id="Custom5" x="-678.1959409999998" y="868.9967519999998"/>
  <node id="Custom6" x="3016.048185" y="-1784.506607"/>
  <node id="Custom7" x="3056.032673" y="804.7337449999998"/>
  <node id="Custom8" x="-392.532897" y="-1728.304977"/>
  <node id="Custom9" x="-351.21518199999986" y="867.0453030000001"/>
  <node id="Custom10" x="1544.171735" y="-1760.436582"/>
  <node id="Custom11" x="1584.7086630000001" y="830.0785720000001"/>
  <node id="Custom12" x="-2199.853756" y="-1697.848322"/>
  <node id="Custom13" x="-2158.214407" y="878.0161099999998"/>
  <node id="Custom14" x="2611.454815" y="-1777.92027"/>
  <node id="Custom15" x="2651.654352" y="815.529943"/>
  <node id="Custom16" x="-2552.896805" y="-1691.845741"/>
  <node id="Custom17" x="-2510.9024839999997" y="897.3562109999998"/>
  <node id="Custom18" x="1871.306596" y="-1765.812415"/>
  <node id="Custom19" x="1911.642173" y="819.657762"/>
  <node id="Custom20" x="-1821.270869" y="-1704.265836"/>
  <node id="Custom21" x="-1779.5523109999997" y="884.2522819999999"/>
  <node id="Custom22" x="-1468.413328" y="-1710.229279"/>
  <node id="Custom23" x="-1426.7576179999999" y="882.093216"/>
  <node id="Custom24" x="-1089.73656" y="-1716.60977"/>
  <node id="Custom25" x="-1048.148712" y="879.7954789999999"/>
  <node id="Custom26" x="786.813042" y="-1747.933601"/>
  <node id="Custom27" x="827.4876320000002" y="834.4159729999999"/>
  <node id="Custom28" x="-9.644949" y="-1734.698886"/>
  <node id="Custom29" x="31.74697200000016" y="873.351535"/>
  <node id="Custom30" x="2241.287401" y="-1771.874361"/>
  <node id="Custom31" x="2281.696096" y="826.1568669999999"/>
</nodes>
