<?xml version='1.0' encoding='UTF-8'?>
<edges>
  <edge id="-1100" from="72017905" to="-25462" numLanes="2" width="3.5" shape="132.670066,-255.927355 12.079924,-405.781137 10.082923,-407.066464 7.853526,-406.248011 -80.307060,-335.950085 "/>
  <edge id="--1100" to="72017905" from="-25462" numLanes="2" width="3.5" shape="-80.307060,-335.950085 7.853526,-406.248011 10.082923,-407.066464 12.079924,-405.781137 132.670066,-255.927355 "/>
  <edge id="161687301" from="1736499199" to="1967750287" numLanes="2" width="3.5" shape="-35.814465,135.586179 -36.414937,134.838789 -49.894739,118.102292 -50.942325,116.800527 -58.067697,107.946317 -87.271270,71.657179 -93.049891,64.476535 -100.845712,54.789289 -103.463894,51.535886 -107.130526,46.979662 -125.717494,23.883209 "/>
  <edge id="-161687301" to="1736499199" from="1967750287" numLanes="2" width="3.5" shape="-125.717494,23.883209 -107.130526,46.979662 -103.463894,51.535886 -100.845712,54.789289 -93.049891,64.476535 -87.271270,71.657179 -58.067697,107.946317 -50.942325,116.800527 -49.894739,118.102292 -36.414937,134.838789 -35.814465,135.586179 "/>
  <edge id="161688768" from="71987057" to="10267739701" numLanes="2" width="3.5" shape="-48.951654,-98.317362 -48.426447,-98.736142 -31.942876,-111.880159 3.985035,-140.528447 "/>
  <edge id="-161688768" to="71987057" from="10267739701" numLanes="2" width="3.5" shape="3.985035,-140.528447 -31.942876,-111.880159 -48.426447,-98.736142 -48.951654,-98.317362 "/>
  <edge id="161688770" from="10261232154" to="71987057" numLanes="2" width="3.5" shape="-130.590101,-33.219399 -119.005220,-42.457210 -65.456680,-85.156583 -64.589002,-85.848466 "/>
  <edge id="-161688770" to="10261232154" from="71987057" numLanes="2" width="3.5" shape="-64.589002,-85.848466 -65.456680,-85.156583 -119.005220,-42.457210 -130.590101,-33.219399 "/>
  <edge id="161890281" from="1736499182" to="4019296931" numLanes="2" width="3.5" shape="75.570430,72.349750 76.136964,73.051910 85.242059,84.388914 93.421340,94.553062 "/>
  <edge id="-161890281" to="1736499182" from="4019296931" numLanes="2" width="3.5" shape="93.421340,94.553062 85.242059,84.388914 76.136964,73.051910 75.570430,72.349750 "/>
  <edge id="186070725" from="1736499182" to="9642835947" numLanes="2" width="3.5" shape="61.478959,70.809813 59.216945,72.617405 15.231708,107.672650 "/>
  <edge id="-186070725" to="1736499182" from="9642835947" numLanes="2" width="3.5" shape="15.231708,107.672650 59.216945,72.617405 61.478959,70.809813 "/>
  <edge id="234665446" from="1736513666" to="1736513671" numLanes="2" width="3.5" shape="264.999481,-91.481388 256.481446,-84.689659 213.757028,-50.623780 176.640506,-21.026921 174.495625,-19.317153 "/>
  <edge id="-234665446" to="1736513666" from="1736513671" numLanes="2" width="3.5" shape="174.495625,-19.317153 176.640506,-21.026921 213.757028,-50.623780 256.481446,-84.689659 264.999481,-91.481388 "/>
  <edge id="323126705" from="1837240570" to="3898602818" numLanes="2" width="3.5" shape="46.885615,-161.946601 47.281499,-161.454776 88.380254,-110.380615 "/>
  <edge id="-323126705" to="1837240570" from="3898602818" numLanes="2" width="3.5" shape="88.380254,-110.380615 47.281499,-161.454776 46.885615,-161.946601 "/>
  <edge id="323126706" from="1837240570" to="2611822743" numLanes="2" width="3.5" shape="34.345359,-177.526780 3.566780,-215.775012 "/>
  <edge id="-323126706" to="1837240570" from="2611822743" numLanes="2" width="3.5" shape="3.566780,-215.775012 34.345359,-177.526780 "/>
  <edge id="382219819" from="9619955250" to="123396147" numLanes="2" width="3.5" shape="191.710141,18.025912 205.066642,34.624040 242.609747,81.279113 273.506074,119.674462 292.126746,142.814787 292.950901,145.035298 291.661854,147.022320 202.096376,218.436452 "/>
  <edge id="-382219819" to="9619955250" from="123396147" numLanes="2" width="3.5" shape="202.096376,218.436452 291.661854,147.022320 292.950901,145.035298 292.126746,142.814787 273.506074,119.674462 242.609747,81.279113 205.066642,34.624040 191.710141,18.025912 "/>
  <edge id="382229043" from="1736513671" to="1967655309" numLanes="2" width="3.5" shape="158.858042,-6.848554 156.870048,-5.263014 139.179132,8.840928 81.662662,54.702384 "/>
  <edge id="-382229043" to="1736513671" from="1967655309" numLanes="2" width="3.5" shape="81.662662,54.702384 139.179132,8.840928 156.870048,-5.263014 158.858042,-6.848554 "/>
  <edge id="382238932" from="72017905" to="1736513666" numLanes="2" width="3.5" shape="143.327908,-242.683096 144.114338,-241.705809 202.157658,-169.575629 237.971592,-125.069375 255.221588,-103.632554 258.890386,-99.073275 264.999482,-91.481388 "/>
  <edge id="-382238932" to="72017905" from="1736513666" numLanes="2" width="3.5" shape="264.999482,-91.481388 258.890386,-99.073275 255.221588,-103.632554 237.971592,-125.069375 202.157658,-169.575629 144.114338,-241.705809 143.327908,-242.683096 "/>
  <edge id="399179069" from="4019296931" to="123396147" numLanes="2" width="3.5" shape="93.421339,94.553063 138.001737,149.952104 161.461824,179.105624 188.408466,212.592011 190.353940,215.009646 "/>
  <edge id="-399179069" to="4019296931" from="123396147" numLanes="2" width="3.5" shape="190.353940,215.009646 188.408466,212.592011 161.461824,179.105624 138.001737,149.952104 93.421339,94.553063 "/>
  <edge id="404995536" from="3898602843" to="1736499182" numLanes="2" width="3.5" shape="5.973702,-14.114627 22.830112,6.832008 61.509483,54.877050 63.029630,56.770027 "/>
  <edge id="-404995536" to="3898602843" from="1736499182" numLanes="2" width="3.5" shape="63.029630,56.770027 61.509483,54.877050 22.830112,6.832008 5.973702,-14.114627 "/>
  <edge id="405164498" from="3299219872" to="1736513671" numLanes="2" width="3.5" shape="119.153078,-72.139967 120.834681,-70.050273 158.993074,-22.627064 160.405030,-20.873236 "/>
  <edge id="-405164498" to="3299219872" from="1736513671" numLanes="2" width="3.5" shape="160.405030,-20.873236 158.993074,-22.627064 120.834681,-70.050273 119.153078,-72.139967 "/>
  <edge id="438258030" from="1837240570" to="72017905" numLanes="2" width="3.5" shape="48.433830,-175.971116 50.796266,-177.854947 82.986533,-203.522044 90.282768,-209.339802 131.120647,-241.902291 "/>
  <edge id="-438258030" to="1837240570" from="72017905" numLanes="2" width="3.5" shape="131.120647,-241.902291 90.282768,-209.339802 82.986533,-203.522044 50.796266,-177.854947 48.433830,-175.971116 "/>
  <edge id="543624990" from="71987057" to="3898602843" numLanes="2" width="3.5" shape="-50.501019,-84.292300 -50.215857,-83.937940 -30.308698,-59.200739 -7.739131,-31.154838 -4.328220,-26.916284 -2.030430,-24.060944 5.973701,-14.114627 "/>
  <edge id="-543624990" to="71987057" from="3898602843" numLanes="2" width="3.5" shape="5.973701,-14.114627 -2.030430,-24.060944 -4.328220,-26.916284 -7.739131,-31.154838 -30.308698,-59.200739 -50.215857,-83.937940 -50.501019,-84.292300 "/>
  <edge id="543624991" from="26666275" to="71987057" numLanes="2" width="3.5" shape="-179.242520,-244.268928 -176.574294,-240.953388 -139.300905,-194.637229 -113.752232,-162.890073 -107.863419,-155.572524 -94.324817,-138.749169 -93.109468,-137.238948 -63.041397,-99.872381 "/>
  <edge id="-543624991" to="26666275" from="71987057" numLanes="2" width="3.5" shape="-63.041397,-99.872381 -93.109468,-137.238948 -94.324817,-138.749169 -107.863419,-155.572524 -113.752232,-162.890073 -139.300905,-194.637229 -176.574294,-240.953388 -179.242520,-244.268928 "/>
  <edge id="580285684" from="73909660" to="26666275" numLanes="2" width="3.5" shape="-161.884302,-21.055147 -216.678634,-89.145222 -223.682770,-97.848479 -282.474883,-170.902382 -283.299158,-173.122843 -282.010213,-175.109926 -190.985037,-247.695229 "/>
  <edge id="-580285684" to="73909660" from="26666275" numLanes="2" width="3.5" shape="-190.985037,-247.695229 -282.010213,-175.109926 -283.299158,-173.122843 -282.474883,-170.902382 -223.682770,-97.848479 -216.678634,-89.145222 -161.884302,-21.055147 "/>
  <edge id="603942759" from="1967750287" to="73909660" numLanes="2" width="3.5" shape="-125.717494,23.883209 -149.170822,-5.260472 -149.343683,-5.475261 "/>
  <edge id="-603942759" to="1967750287" from="73909660" numLanes="2" width="3.5" shape="-149.343683,-5.475261 -149.170822,-5.260472 -125.717494,23.883209 "/>
  <edge id="603942760" from="122641670" to="73909660" numLanes="2" width="3.5" shape="-253.834396,65.057379 -244.853784,57.896017 -165.001104,-5.779816 -163.431932,-7.031092 "/>
  <edge id="-603942760" to="122641670" from="73909660" numLanes="2" width="3.5" shape="-163.431932,-7.031092 -165.001104,-5.779816 -244.853784,57.896017 -253.834396,65.057379 "/>
  <edge id="606916054" from="1736499199" to="122641670" numLanes="2" width="3.5" shape="-37.384056,149.598511 -39.252954,151.081804 -42.491934,153.700579 -123.580856,218.360626 -129.457744,223.046885 -146.323402,236.495672 -191.821320,272.776269 -238.766950,310.211685 -240.996340,311.030196 -242.993403,309.744940 -352.073918,174.205317 -365.295201,157.777229 -366.119502,155.556780 -364.830577,153.569687 -253.834396,65.057379 "/>
  <edge id="-606916054" to="1736499199" from="122641670" numLanes="2" width="3.5" shape="-253.834396,65.057379 -364.830577,153.569687 -366.119502,155.556780 -365.295201,157.777229 -352.073918,174.205317 -242.993403,309.744940 -240.996340,311.030196 -238.766950,310.211685 -191.821320,272.776269 -146.323402,236.495672 -129.457744,223.046885 -123.580856,218.360626 -42.491934,153.700579 -39.252954,151.081804 -37.384056,149.598511 "/>
  <edge id="607576339" from="1967655309" to="1736499182" numLanes="2" width="3.5" shape="81.662661,54.702384 77.417633,58.099459 77.115496,58.339918 "/>
  <edge id="-607576339" to="1967655309" from="1736499182" numLanes="2" width="3.5" shape="77.115496,58.339918 77.417633,58.099459 81.662661,54.702384 "/>
  <edge id="608741620" from="5766742578" to="1736499199" numLanes="2" width="3.5" shape="-4.294963,174.766326 -22.270401,152.463038 -23.295984,151.183856 "/>
  <edge id="-608741620" to="5766742578" from="1736499199" numLanes="2" width="3.5" shape="-23.295984,151.183856 -22.270401,152.463038 -4.294963,174.766326 "/>
  <edge id="608741621" from="123396147" to="5766742578" numLanes="2" width="3.5" shape="188.804443,229.034778 100.127225,299.742224 97.897802,300.560649 95.900787,299.275318 14.586888,198.229797 -4.294963,174.766326 "/>
  <edge id="-608741621" to="123396147" from="5766742578" numLanes="2" width="3.5" shape="-4.294963,174.766326 14.586888,198.229797 95.900787,299.275318 97.897802,300.560649 100.127225,299.742224 188.804443,229.034778 "/>
  <edge id="1046059231" from="3898602818" to="3299219872" numLanes="2" width="3.5" shape="88.380253,-110.380615 103.222033,-91.937124 119.153078,-72.139967 "/>
  <edge id="-1046059231" to="3898602818" from="3299219872" numLanes="2" width="3.5" shape="119.153078,-72.139967 103.222033,-91.937124 88.380253,-110.380615 "/>
  <edge id="1046059232" from="1736513671" to="9619955250" numLanes="2" width="3.5" shape="172.931045,-5.281618 173.077159,-5.099362 191.710141,18.025912 "/>
  <edge id="-1046059232" to="1736513671" from="9619955250" numLanes="2" width="3.5" shape="191.710141,18.025912 173.077159,-5.099362 172.931045,-5.281618 "/>
  <edge id="1049269630" from="9642835947" to="1736499199" numLanes="2" width="3.5" shape="15.231707,107.672650 -1.554069,121.057304 -21.074214,136.623032 -21.732299,137.147727 "/>
  <edge id="-1049269630" to="9642835947" from="1736499199" numLanes="2" width="3.5" shape="-21.732299,137.147727 -21.074214,136.623032 -1.554069,121.057304 15.231707,107.672650 "/>
  <edge id="1121913941" from="73909660" to="10261232154" numLanes="2" width="3.5" shape="-147.794678,-19.500105 -146.913807,-20.202487 -130.590101,-33.219400 "/>
  <edge id="-1121913941" to="73909660" from="10261232154" numLanes="2" width="3.5" shape="-130.590101,-33.219400 -146.913807,-20.202487 -147.794678,-19.500105 "/>
  <edge id="1122667815" from="10267739701" to="1837240570" numLanes="2" width="3.5" shape="3.985036,-140.528447 32.631239,-163.369269 32.797054,-163.501506 "/>
  <edge id="-1122667815" to="10267739701" from="1837240570" numLanes="2" width="3.5" shape="32.797054,-163.501506 32.631239,-163.369269 3.985036,-140.528447 "/>
  <edge id="-1098_1" from="2611822743" to="-25462" numLanes="2" width="3.5" shape="3.566779,-215.775011 -81.856274,-321.924965 "/>
  <edge id="--1098_1" to="2611822743" from="-25462" numLanes="2" width="3.5" shape="-81.856274,-321.924965 3.566779,-215.775011 "/>
  <edge id="-1098_2" from="-25462" to="26666275" numLanes="2" width="3.5" shape="-93.598721,-325.351418 -177.693489,-258.294039 "/>
  <edge id="--1098_2" to="-25462" from="26666275" numLanes="2" width="3.5" shape="-177.693489,-258.294039 -93.598721,-325.351418 "/>
</edges>
