<?xml version='1.0' encoding='UTF-8'?>
<edges>
  <edge id="-7675" from="-59498" to="-59549" numLanes="4" width="4.0" shape="-218.108647,319.742801 -57.233074,320.759032 "/>
  <edge id="-7677" from="-59562" to="-59514" numLanes="4" width="4.0" shape="152.364652,-304.709268 196.393557,-304.430099 211.264809,-303.693253 224.585120,-297.544933 236.473280,-288.679978 244.823117,-278.912884 251.773943,-266.934351 252.239472,-256.787426 "/>
  <edge id="-7683" from="-59498" to="-59609" numLanes="4" width="4.0" shape="-214.332258,304.663554 -240.694948,290.789006 -256.550549,266.381777 -268.710795,244.306714 -273.286323,228.643959 -274.740532,218.534989 -273.156296,198.519464 -273.131457,197.928797 -272.445356,62.611967 "/>
  <edge id="-7684" from="-59499" to="-59547" numLanes="4" width="4.0" shape="205.480886,322.125359 227.601904,316.070367 228.394308,315.808333 229.155101,315.465168 229.876001,315.044609 230.549162,314.551232 252.115070,296.944533 252.764506,296.351965 253.344998,295.691713 253.849538,294.971752 254.272031,294.200777 265.328975,271.095079 265.638032,270.356412 265.871700,269.590550 270.845658,249.786444 270.993816,249.052828 271.072767,248.308578 272.175539,229.605316 272.189409,229.133014 272.185973,209.879830 272.152635,209.151676 271.627721,203.419876 270.728195,123.515353 "/>
  <edge id="-7711" from="-59536" to="-59540" numLanes="4" width="4.0" shape="-269.236947,-104.240529 -252.890306,-104.921004 -219.039323,-104.385318 -171.504502,-101.134878 -131.498625,-94.602504 "/>
  <edge id="-7724" from="-59549" to="-59554" numLanes="4" width="4.0" shape="-38.982109,302.986220 -38.071187,257.960089 -38.105447,257.041262 -40.876644,227.887056 -41.057873,226.792888 -48.249664,196.556592 -58.632045,152.029843 -61.354926,120.149245 "/>
  <edge id="-7844" from="-59556" to="-59544" numLanes="4" width="4.0" shape="18.580110,12.425320 84.075814,70.666935 84.776060,71.222773 105.795312,86.071377 106.752701,86.651787 138.833464,103.148612 "/>
  <edge id="-7847" from="-59556" to="-59562" numLanes="4" width="4.0" shape="29.076103,-2.175329 84.760173,-63.033155 85.031718,-63.345807 107.702308,-90.855354 108.269675,-91.635230 108.739073,-92.477712 126.983202,-130.438449 127.252180,-131.065237 127.466791,-131.712660 147.364245,-201.580077 147.538099,-202.323586 147.640278,-203.080283 151.503432,-247.639918 151.532126,-248.469637 150.587800,-302.912757 "/>
  <edge id="-7860" from="-59608" to="-59514" numLanes="4" width="4.0" shape="269.823371,-9.656122 268.230900,-257.205533 "/>
  <edge id="-7872" from="-59609" to="-59536" numLanes="4" width="4.0" shape="-272.445356,62.611968 -271.611836,-101.777253 "/>
  <edge id="-7889" from="-59511" to="-59610" numLanes="4" width="4.0" shape="-271.577505,-253.449560 -271.070340,-267.151015 -267.748539,-277.070240 -261.187498,-290.129116 -254.512988,-298.541948 -241.832507,-304.851646 -224.345495,-307.091783 -31.858807,-305.875795 "/>
  <edge id="-7903" from="-59554" to="-59556" numLanes="4" width="4.0" shape="-61.871042,123.732622 -45.257967,81.064375 15.744797,12.590236 "/>
  <edge id="-7906" from="-59544" to="-59547" numLanes="4" width="4.0" shape="140.335039,103.737898 179.604503,114.732495 180.180237,114.870930 180.764633,114.966401 228.882115,121.008644 229.748134,121.069914 252.486734,121.441554 "/>
  <edge id="-7909" from="-59540" to="-59556" numLanes="4" width="4.0" shape="-132.845142,-94.944602 -82.348901,-77.324022 3.634549,-0.864831 "/>
  <edge id="-7929" from="-59549" to="-59499" numLanes="4" width="4.0" shape="-37.233606,320.885532 203.318144,322.409039 "/>
  <edge id="-7932" from="-59547" to="-59608" numLanes="4" width="4.0" shape="270.551641,103.554785 269.823372,-9.656123 "/>
  <edge id="-7934" from="-59610" to="-59562" numLanes="4" width="4.0" shape="-31.858922,-305.875795 132.365126,-304.835987 "/>
  <edge id="-7938" from="-59536" to="-59511" numLanes="4" width="4.0" shape="-271.561804,-121.818308 -271.572030,-253.746101 "/>
</edges>
