<?xml version='1.0' encoding='UTF-8'?>
<nodes>
  <node id="-59498" x="-218.058113" y="311.742961"/>
  <node id="-59499" x="203.368809" y="314.409199"/>
  <node id="-59511" x="-279.57203" y="-253.745481"/>
  <node id="-59514" x="260.231066" y="-257.154071"/>
  <node id="-59536" x="-279.561029" y="-111.817688" shape="-271.561804,-121.818308 -269.902417,-120.226684 -269.236948,-104.240529 -271.611835,-101.777254 -287.611630,-101.858379 -287.561804,-121.817068 -271.561804,-121.818308 -271.561804,-121.818308"/>
  <node id="-59540" x="-130.209416" y="-102.497942"/>
  <node id="-59544" x="142.491923" y="96.034142"/>
  <node id="-59547" x="262.616134" y="113.60604" shape="270.551641,103.554785 270.728195,123.515352 254.729209,123.695461 252.486735,121.441553 252.748204,105.443690 254.551972,103.657709 270.551641,103.554785 270.551641,103.554785"/>
  <node id="-59549" x="-47.18274" y="312.82236" shape="-54.978835,302.662591 -38.982108,302.986220 -37.132274,304.885853 -37.233607,320.885532 -57.233074,320.759033 -57.132006,304.759352 -54.978835,302.662591 -54.978835,302.662591"/>
  <node id="-59554" x="-69.325906" y="120.830037"/>
  <node id="-59556" x="16.423426" y="-0.19802" shape="17.271761,-12.976139 29.076104,-2.175329 29.212298,0.468875 18.580110,12.425320 15.744797,12.590235 3.798112,1.947081 3.634549,-0.864831 14.266659,-12.821346 17.271761,-12.976139 17.271761,-12.976139"/>
  <node id="-59562" x="142.415577" y="-312.772511" shape="132.466430,-320.835666 142.466301,-320.772350 152.466100,-320.708946 152.364652,-304.709267 150.587800,-302.912756 134.590206,-302.635274 132.365125,-304.835987 132.466430,-320.835666 132.466430,-320.835666"/>
  <node id="-59608" x="261.823537" y="-9.60466"/>
  <node id="-59609" x="-280.445253" y="62.571405"/>
  <node id="-59610" x="-31.80827" y="-313.875635"/>
</nodes>
