<?xml version="1.0" encoding="UTF-8"?>


<net version="1.9" junctionCornerDetail="5" limitTurnSpeed="5.50" xmlns:xsi="http://www.w3.org/2001/XMLSchema-instance" xsi:noNamespaceSchemaLocation="http://sumo.dlr.de/xsd/net_file.xsd">

    <location netOffset="887.06,1321.32" convBoundary="0.00,0.00,1770.40,2140.08" origBoundary="-887.06,-1321.32,883.35,818.76" projParameter="!"/>

    <edge id=":11575444827_0" function="internal">
        <lane id=":11575444827_0_0" index="0" speed="13.89" length="8.00" width="4.00" shape="791.06,1523.17 784.66,1527.97"/>
    </edge>
    <edge id=":11575444827_1" function="internal">
        <lane id=":11575444827_1_0" index="0" speed="5.56" length="6.34" width="4.00" shape="791.06,1523.17 789.52,1524.02 788.11,1524.14 786.82,1523.55 785.66,1522.24"/>
    </edge>
    <edge id=":122526352_0" function="internal">
        <lane id=":122526352_0_0" index="0" speed="13.89" length="29.30" width="4.00" shape="774.45,1202.23 797.14,1183.69"/>
    </edge>
    <edge id=":122526352_1" function="internal">
        <lane id=":122526352_1_0" index="0" speed="13.89" length="29.85" width="4.00" shape="774.45,1202.23 780.37,1197.65 786.63,1193.60 793.23,1190.16 800.17,1187.40"/>
        <lane id=":122526352_1_1" index="1" speed="13.89" length="28.37" width="4.00" shape="777.03,1205.29 782.74,1200.82 788.56,1197.02 794.71,1193.83 801.45,1191.19"/>
    </edge>
    <edge id=":1623240596_0" function="internal">
        <lane id=":1623240596_0_0" index="0" speed="13.89" length="0.26" width="4.00" shape="837.69,1178.34 838.12,1178.28"/>
        <lane id=":1623240596_0_1" index="1" speed="13.89" length="0.26" width="4.00" shape="838.37,1182.28 838.46,1182.27"/>
    </edge>
    <edge id=":1623240814_0" function="internal">
        <lane id=":1623240814_0_0" index="0" speed="13.89" length="2.98" width="4.00" shape="758.53,1282.21 761.10,1283.71"/>
    </edge>
    <edge id=":1623240855_0" function="internal">
        <lane id=":1623240855_0_0" index="0" speed="13.89" length="2.82" width="4.00" shape="623.23,1309.07 624.63,1306.78"/>
        <lane id=":1623240855_0_1" index="1" speed="13.89" length="2.82" width="4.00" shape="623.23,1309.07 625.74,1310.62"/>
    </edge>
    <edge id=":1623240904_0" function="internal">
        <lane id=":1623240904_0_0" index="0" speed="13.89" length="133.81" width="3.50" shape="592.93,1362.02 459.22,1359.43"/>
        <lane id=":1623240904_0_1" index="1" speed="13.89" length="133.81" width="3.50" shape="592.93,1362.02 459.19,1355.93"/>
    </edge>
    <edge id=":1623240904_2" function="internal">
        <lane id=":1623240904_2_0" index="0" speed="13.89" length="134.00" width="3.50" shape="593.21,1358.08 459.22,1359.43"/>
        <lane id=":1623240904_2_1" index="1" speed="13.89" length="134.00" width="3.50" shape="593.17,1354.58 459.19,1355.93"/>
        <lane id=":1623240904_2_2" index="2" speed="13.89" length="134.00" width="3.50" shape="593.14,1351.08 459.15,1352.43"/>
        <lane id=":1623240904_2_3" index="3" speed="13.89" length="134.00" width="3.50" shape="593.10,1347.58 459.11,1348.93"/>
        <lane id=":1623240904_2_4" index="4" speed="13.89" length="134.00" width="3.50" shape="593.07,1344.08 459.08,1345.43"/>
    </edge>
    <edge id=":1623240906_0" function="internal">
        <lane id=":1623240906_0_0" index="0" speed="13.89" length="64.84" width="3.50" shape="882.88,1339.41 874.76,1340.83 859.19,1346.53 839.74,1352.76 819.96,1355.79"/>
        <lane id=":1623240906_0_1" index="1" speed="13.89" length="64.84" width="3.50" shape="882.88,1339.41 874.76,1340.29 859.18,1344.78 839.71,1349.80 819.92,1352.29"/>
    </edge>
    <edge id=":1623240906_2" function="internal">
        <lane id=":1623240906_2_0" index="0" speed="13.89" length="83.00" width="3.50" shape="902.94,1354.96 819.96,1355.79"/>
        <lane id=":1623240906_2_1" index="1" speed="13.89" length="83.00" width="3.50" shape="902.91,1351.46 819.92,1352.29"/>
        <lane id=":1623240906_2_2" index="2" speed="13.89" length="83.00" width="3.50" shape="902.88,1347.96 819.89,1348.79"/>
        <lane id=":1623240906_2_3" index="3" speed="13.89" length="83.00" width="3.50" shape="902.85,1344.46 819.85,1345.29"/>
        <lane id=":1623240906_2_4" index="4" speed="13.89" length="83.00" width="3.50" shape="902.82,1340.96 819.82,1341.79"/>
    </edge>
    <edge id=":1623240926_0" function="internal">
        <lane id=":1623240926_0_0" index="0" speed="13.89" length="2.82" width="4.00" shape="1085.63,1377.32 1084.51,1379.72"/>
        <lane id=":1623240926_0_1" index="1" speed="13.89" length="2.82" width="4.00" shape="1085.63,1377.32 1082.93,1376.05"/>
    </edge>
    <edge id=":1733927944_0" function="internal">
        <lane id=":1733927944_0_0" index="0" speed="13.89" length="2.96" width="4.00" shape="748.96,1372.49 746.39,1373.96"/>
    </edge>
    <edge id=":1733931214_0" function="internal">
        <lane id=":1733931214_0_0" index="0" speed="5.08" length="5.57" width="3.50" shape="888.79,1510.15 887.50,1510.17 886.58,1510.79 886.03,1512.01 885.87,1513.83"/>
        <lane id=":1733931214_0_1" index="1" speed="7.16" length="12.53" width="3.50" shape="889.54,1506.22 886.36,1506.18 884.11,1507.45 882.78,1510.01 882.37,1513.87"/>
    </edge>
    <edge id=":1733931214_2" function="internal">
        <lane id=":1733931214_2_0" index="0" speed="13.89" length="17.00" width="3.50" shape="885.77,1496.86 885.87,1513.83"/>
        <lane id=":1733931214_2_1" index="1" speed="13.89" length="17.00" width="3.50" shape="882.27,1496.87 882.37,1513.87"/>
        <lane id=":1733931214_2_2" index="2" speed="13.89" length="17.00" width="3.50" shape="878.77,1496.88 878.87,1513.91"/>
    </edge>
    <edge id=":1964062480_0" function="internal">
        <lane id=":1964062480_0_0" index="0" speed="13.89" length="2.67" width="3.50" shape="864.28,1089.85 862.52,1087.88"/>
        <lane id=":1964062480_0_1" index="1" speed="13.89" length="2.67" width="3.50" shape="867.78,1089.86 866.02,1087.83"/>
    </edge>
    <edge id=":254134349_0" function="internal">
        <lane id=":254134349_0_0" index="0" speed="13.89" length="17.37" width="4.00" shape="978.10,1482.76 967.24,1496.31"/>
    </edge>
    <edge id=":254134349_1" function="internal">
        <lane id=":254134349_1_0" index="0" speed="13.89" length="17.94" width="4.00" shape="978.10,1482.76 974.71,1486.78 971.91,1489.11 968.70,1490.95 964.03,1493.55"/>
        <lane id=":254134349_1_1" index="1" speed="13.89" length="16.42" width="4.00" shape="974.93,1480.31 971.82,1483.98 969.24,1486.08 966.27,1487.75 962.00,1490.11"/>
    </edge>
    <edge id=":254134357_0" function="internal">
        <lane id=":254134357_0_0" index="0" speed="13.89" length="13.99" width="3.50" shape="862.80,1505.76 862.82,1491.56"/>
        <lane id=":254134357_0_1" index="1" speed="13.89" length="13.99" width="3.50" shape="866.30,1505.70 866.32,1491.71"/>
        <lane id=":254134357_0_2" index="2" speed="13.89" length="13.99" width="3.50" shape="869.80,1505.65 869.81,1491.87"/>
    </edge>
    <edge id=":254134379_0" function="internal">
        <lane id=":254134379_0_0" index="0" speed="13.89" length="0.30" width="3.50" shape="884.78,1301.47 884.78,1301.74"/>
        <lane id=":254134379_0_1" index="1" speed="13.89" length="0.30" width="3.50" shape="881.28,1301.47 881.28,1301.77"/>
        <lane id=":254134379_0_2" index="2" speed="13.89" length="0.30" width="3.50" shape="877.78,1301.48 877.78,1301.80"/>
    </edge>
    <edge id=":254134388_0" function="internal">
        <lane id=":254134388_0_0" index="0" speed="13.89" length="127.82" width="3.50" shape="840.80,1317.62 968.63,1317.98"/>
    </edge>
    <edge id=":254134388_1" function="internal">
        <lane id=":254134388_1_0" index="0" speed="13.89" length="128.00" width="3.50" shape="840.62,1321.46 968.66,1321.48"/>
        <lane id=":254134388_1_1" index="1" speed="13.89" length="128.00" width="3.50" shape="840.67,1324.96 968.69,1324.98"/>
        <lane id=":254134388_1_2" index="2" speed="13.89" length="128.00" width="3.50" shape="840.72,1328.46 968.72,1328.48"/>
        <lane id=":254134388_1_3" index="3" speed="13.89" length="128.00" width="3.50" shape="840.77,1331.96 968.75,1331.98"/>
    </edge>
    <edge id=":25679008_0" function="internal">
        <lane id=":25679008_0_0" index="0" speed="13.89" length="116.24" width="4.00" shape="1379.65,1319.00 1265.33,1340.09"/>
    </edge>
    <edge id=":25679008_1" function="internal">
        <lane id=":25679008_1_0" index="0" speed="13.89" length="116.00" width="3.50" shape="1379.65,1319.00 1264.42,1336.37"/>
        <lane id=":25679008_1_1" index="1" speed="13.89" length="116.00" width="3.50" shape="1378.87,1315.59 1263.90,1332.90"/>
        <lane id=":25679008_1_2" index="2" speed="13.89" length="116.00" width="3.50" shape="1378.08,1312.18 1263.38,1329.44"/>
        <lane id=":25679008_1_3" index="3" speed="13.89" length="116.00" width="3.50" shape="1377.30,1308.77 1262.86,1325.98"/>
        <lane id=":25679008_1_4" index="4" speed="13.89" length="116.00" width="3.50" shape="1376.52,1305.36 1262.34,1322.52"/>
    </edge>
    <edge id=":268900414_0" function="internal">
        <lane id=":268900414_0_0" index="0" speed="13.89" length="115.16" width="3.50" shape="1156.39,1310.53 1172.95,1309.92 1206.35,1308.23 1243.39,1305.59 1270.90,1302.09"/>
        <lane id=":268900414_0_1" index="1" speed="13.89" length="115.16" width="3.50" shape="1156.39,1310.53 1173.06,1310.45 1206.71,1309.95 1244.01,1308.48 1271.63,1305.52"/>
    </edge>
    <edge id=":268900414_2" function="internal">
        <lane id=":268900414_2_0" index="0" speed="13.89" length="116.04" width="3.50" shape="1156.58,1314.41 1181.53,1312.54 1213.93,1309.60 1246.23,1305.98 1270.90,1302.09"/>
        <lane id=":268900414_2_1" index="1" speed="13.89" length="116.04" width="3.50" shape="1156.80,1317.91 1181.83,1316.02 1214.40,1313.05 1246.88,1309.41 1271.63,1305.52"/>
        <lane id=":268900414_2_2" index="2" speed="13.89" length="116.04" width="3.50" shape="1157.02,1321.40 1182.13,1319.50 1214.87,1316.51 1247.52,1312.85 1272.35,1308.94"/>
        <lane id=":268900414_2_3" index="3" speed="13.89" length="116.04" width="3.50" shape="1157.27,1324.89 1182.45,1322.98 1215.36,1319.97 1248.18,1316.28 1273.08,1312.36"/>
        <lane id=":268900414_2_4" index="4" speed="13.89" length="116.04" width="3.50" shape="1157.51,1328.38 1182.77,1326.46 1215.84,1323.42 1248.83,1319.72 1273.81,1315.79"/>
    </edge>
    <edge id=":272907210_0" function="internal">
        <lane id=":272907210_0_0" index="0" speed="13.89" length="0.10" width="4.00" shape="887.93,1376.41 887.93,1376.41"/>
    </edge>
    <edge id=":342499711_0" function="internal">
        <lane id=":342499711_0_0" index="0" speed="13.89" length="34.61" width="3.50" shape="891.16,1650.07 887.82,1684.52"/>
    </edge>
    <edge id=":342499711_1" function="internal">
        <lane id=":342499711_1_0" index="0" speed="13.89" length="35.00" width="3.50" shape="887.42,1649.51 887.82,1684.52"/>
        <lane id=":342499711_1_1" index="1" speed="13.89" length="35.00" width="3.50" shape="883.92,1649.55 884.32,1684.55"/>
        <lane id=":342499711_1_2" index="2" speed="13.89" length="35.00" width="3.50" shape="880.42,1649.59 880.82,1684.58"/>
    </edge>
    <edge id=":342500465_0" function="internal">
        <lane id=":342500465_0_0" index="0" speed="5.03" length="4.82" width="4.00" shape="859.06,907.74 858.90,905.97 858.54,904.71 857.98,903.96 857.22,903.72"/>
    </edge>
    <edge id=":342500465_1" function="internal">
        <lane id=":342500465_1_0" index="0" speed="13.89" length="8.24" width="3.50" shape="862.56,907.62 862.21,905.23 861.56,903.65 860.92,902.07 860.58,899.68"/>
        <lane id=":342500465_1_1" index="1" speed="13.89" length="8.24" width="3.50" shape="866.06,907.51 865.71,905.12 865.06,903.55 864.42,901.97 864.08,899.59"/>
    </edge>
    <edge id=":342500465_3" function="internal">
        <lane id=":342500465_3_0" index="0" speed="13.89" length="10.46" width="4.00" shape="867.68,903.65 857.22,903.72"/>
    </edge>
    <edge id=":342500465_4" function="internal">
        <lane id=":342500465_4_0" index="0" speed="5.65" length="6.14" width="3.50" shape="867.68,903.65 866.15,903.39 865.03,902.63 864.35,901.36 864.08,899.59"/>
    </edge>
    <edge id=":342500652_0" function="internal">
        <lane id=":342500652_0_0" index="0" speed="13.89" length="11.00" width="3.50" shape="883.30,1181.95 883.41,1192.84"/>
        <lane id=":342500652_0_1" index="1" speed="13.89" length="11.00" width="3.50" shape="879.80,1181.94 879.91,1192.94"/>
        <lane id=":342500652_0_2" index="2" speed="13.89" length="11.00" width="3.50" shape="876.30,1181.94 876.41,1193.05"/>
    </edge>
    <edge id=":342500652_3" function="internal">
        <lane id=":342500652_3_0" index="0" speed="8.90" length="10.41" width="3.50" shape="873.36,1185.39 876.18,1187.19 878.21,1189.05 879.45,1190.97 879.91,1192.94"/>
        <lane id=":342500652_3_1" index="1" speed="8.14" length="8.58" width="3.50" shape="873.36,1185.39 874.63,1186.46 875.56,1188.09 876.15,1190.29 876.41,1193.05"/>
    </edge>
    <edge id=":342500661_0" function="internal">
        <lane id=":342500661_0_0" index="0" speed="13.89" length="14.00" width="3.50" shape="860.56,1187.25 860.52,1173.22"/>
        <lane id=":342500661_0_1" index="1" speed="13.89" length="14.00" width="3.50" shape="864.06,1187.22 864.02,1173.23"/>
        <lane id=":342500661_0_2" index="2" speed="13.89" length="14.00" width="3.50" shape="867.56,1187.19 867.52,1173.24"/>
    </edge>
    <edge id=":342500661_3" function="internal">
        <lane id=":342500661_3_0" index="0" speed="4.73" length="5.82" width="4.00" shape="867.56,1187.19 867.72,1185.10 868.26,1183.83 869.16,1183.40 870.44,1183.79"/>
    </edge>
    <edge id=":342500661_4" function="internal">
        <lane id=":342500661_4_0" index="0" speed="5.47" length="6.25" width="3.50" shape="857.24,1177.52 858.67,1177.38 859.69,1176.61 860.31,1175.22 860.52,1173.22"/>
        <lane id=":342500661_4_1" index="1" speed="7.43" length="12.74" width="3.50" shape="856.83,1181.50 859.97,1181.26 862.21,1179.80 863.56,1177.12 864.02,1173.23"/>
    </edge>
    <edge id=":342500661_6" function="internal">
        <lane id=":342500661_6_0" index="0" speed="13.89" length="13.93" width="4.00" shape="856.83,1181.50 861.24,1181.81 864.57,1182.00 867.43,1182.51 870.44,1183.79"/>
    </edge>
    <edge id=":342500721_0" function="internal">
        <lane id=":342500721_0_0" index="0" speed="13.89" length="70.96" width="4.00" shape="881.60,1062.01 887.11,1132.76"/>
    </edge>
    <edge id=":342500721_1" function="internal">
        <lane id=":342500721_1_0" index="0" speed="13.89" length="71.00" width="3.50" shape="881.60,1062.01 883.33,1133.05"/>
        <lane id=":342500721_1_1" index="1" speed="13.89" length="71.00" width="3.50" shape="878.10,1062.10 879.83,1133.05"/>
        <lane id=":342500721_1_2" index="2" speed="13.89" length="71.00" width="3.50" shape="878.10,1062.10 876.33,1133.05"/>
    </edge>
    <edge id=":342500845_0" function="internal">
        <lane id=":342500845_0_0" index="0" speed="13.89" length="26.00" width="3.50" shape="861.85,1046.27 861.47,1020.23"/>
        <lane id=":342500845_0_1" index="1" speed="13.89" length="26.00" width="3.50" shape="865.35,1046.22 864.97,1020.27"/>
    </edge>
    <edge id=":342500845_2" function="internal">
        <lane id=":342500845_2_0" index="0" speed="13.89" length="25.78" width="3.50" shape="857.71,1045.69 858.74,1041.06 859.96,1034.88 860.99,1027.74 861.47,1020.23"/>
    </edge>
    <edge id=":342501229_0" function="internal">
        <lane id=":342501229_0_0" index="0" speed="13.89" length="49.73" width="4.00" shape="863.22,1646.69 862.63,1633.32 861.40,1618.15 860.06,1604.87 859.10,1597.15"/>
    </edge>
    <edge id=":342501229_1" function="internal">
        <lane id=":342501229_1_0" index="0" speed="13.89" length="50.00" width="3.50" shape="863.22,1646.69 862.94,1596.69"/>
        <lane id=":342501229_1_1" index="1" speed="13.89" length="50.00" width="3.50" shape="866.72,1646.66 866.44,1596.67"/>
        <lane id=":342501229_1_2" index="2" speed="13.89" length="50.00" width="3.50" shape="870.22,1646.63 869.94,1596.65"/>
    </edge>
    <edge id=":342502960_0" function="internal">
        <lane id=":342502960_0_0" index="0" speed="13.89" length="0.30" width="3.50" shape="862.01,1375.72 862.01,1375.40"/>
        <lane id=":342502960_0_1" index="1" speed="13.89" length="0.30" width="3.50" shape="865.51,1375.69 865.51,1375.39"/>
        <lane id=":342502960_0_2" index="2" speed="13.89" length="0.30" width="3.50" shape="869.01,1375.66 869.01,1375.39"/>
    </edge>
    <edge id=":3701998332_0" function="internal">
        <lane id=":3701998332_0_0" index="0" speed="13.89" length="8.00" width="4.00" shape="426.95,905.92 418.96,905.98"/>
    </edge>
    <edge id=":3701998332_1" function="internal">
        <lane id=":3701998332_1_0" index="0" speed="5.67" length="6.42" width="4.00" shape="426.95,905.92 425.20,905.68 423.96,904.94 423.22,903.70 422.99,901.95"/>
    </edge>
    <edge id=":3701998333_0" function="internal">
        <lane id=":3701998333_0_0" index="0" speed="13.89" length="7.99" width="4.00" shape="559.13,905.02 551.13,905.10"/>
    </edge>
    <edge id=":3701998333_1" function="internal">
        <lane id=":3701998333_1_0" index="0" speed="5.67" length="1.89" width="4.00" shape="555.04,901.08 554.83,902.83 554.77,902.93"/>
    </edge>
    <edge id=":3701998333_2" function="internal">
        <lane id=":3701998333_2_0" index="0" speed="5.67" length="4.53" width="4.00" shape="554.77,902.93 554.11,904.08 552.88,904.84 551.13,905.10"/>
    </edge>
    <edge id=":4023442786_0" function="internal">
        <lane id=":4023442786_0_0" index="0" speed="13.89" length="0.27" width="4.00" shape="900.21,1510.47 899.84,1510.47"/>
        <lane id=":4023442786_0_1" index="1" speed="13.89" length="0.27" width="4.00" shape="900.01,1506.47 899.84,1506.47"/>
    </edge>
    <edge id=":4023449777_0" function="internal">
        <lane id=":4023449777_0_0" index="0" speed="13.89" length="2.65" width="3.50" shape="862.24,952.40 860.47,950.54"/>
        <lane id=":4023449777_0_1" index="1" speed="13.89" length="2.65" width="3.50" shape="862.24,952.40 863.97,950.42"/>
        <lane id=":4023449777_0_2" index="2" speed="13.89" length="2.65" width="3.50" shape="865.74,952.44 867.47,950.31"/>
    </edge>
    <edge id=":4033455042_0" function="internal">
        <lane id=":4033455042_0_0" index="0" speed="13.89" length="2.83" width="4.00" shape="836.47,1234.70 833.64,1234.70"/>
        <lane id=":4033455042_0_1" index="1" speed="13.89" length="2.83" width="4.00" shape="836.47,1234.70 836.47,1231.87"/>
    </edge>
    <edge id=":4033455043_0" function="internal">
        <lane id=":4033455043_0_0" index="0" speed="13.89" length="2.83" width="4.00" shape="850.64,1493.22 848.47,1491.45"/>
        <lane id=":4033455043_0_1" index="1" speed="13.89" length="2.83" width="4.00" shape="850.64,1493.22 852.44,1491.02"/>
    </edge>
    <edge id=":4593281295_0" function="internal">
        <lane id=":4593281295_0_0" index="0" speed="4.37" length="3.20" width="4.00" shape="1204.86,1734.24 1204.98,1733.37 1205.35,1732.75 1205.96,1732.37 1206.83,1732.23"/>
    </edge>
    <edge id=":7098841130_0" function="internal">
        <lane id=":7098841130_0_0" index="0" speed="5.83" length="6.54" width="4.00" shape="1114.83,1254.64 1114.58,1252.88 1113.82,1251.60 1112.57,1250.79 1110.82,1250.46"/>
    </edge>
    <edge id=":7098841130_1" function="internal">
        <lane id=":7098841130_1_0" index="0" speed="13.89" length="8.00" width="4.00" shape="1118.81,1250.43 1116.44,1250.55 1114.82,1250.59 1113.19,1250.56 1110.82,1250.46"/>
    </edge>
    <edge id=":7098841131_0" function="internal">
        <lane id=":7098841131_0_0" index="0" speed="5.66" length="6.42" width="4.00" shape="1196.76,1250.18 1196.45,1248.44 1195.66,1247.23 1194.39,1246.55 1192.63,1246.40"/>
    </edge>
    <edge id=":7098841131_1" function="internal">
        <lane id=":7098841131_1_0" index="0" speed="13.89" length="7.99" width="4.00" shape="1196.76,1250.18 1196.78,1242.19"/>
    </edge>
    <edge id=":7098841131_2" function="internal">
        <lane id=":7098841131_2_0" index="0" speed="13.89" length="8.00" width="4.00" shape="1200.61,1245.84 1192.63,1246.40"/>
    </edge>
    <edge id=":7098841131_3" function="internal">
        <lane id=":7098841131_3_0" index="0" speed="5.42" length="1.74" width="4.00" shape="1200.61,1245.84 1198.87,1245.74"/>
    </edge>
    <edge id=":7098841131_4" function="internal">
        <lane id=":7098841131_4_0" index="0" speed="5.42" length="4.49" width="4.00" shape="1198.87,1245.74 1197.66,1245.10 1196.96,1243.91 1196.78,1242.19"/>
    </edge>
    <edge id=":7098841132_0" function="internal">
        <lane id=":7098841132_0_0" index="0" speed="5.78" length="6.50" width="4.00" shape="1275.53,1243.45 1275.08,1241.73 1274.20,1240.55 1272.86,1239.91 1271.09,1239.81"/>
    </edge>
    <edge id=":7098841132_1" function="internal">
        <lane id=":7098841132_1_0" index="0" speed="13.89" length="8.00" width="4.00" shape="1275.53,1243.45 1274.56,1235.50"/>
    </edge>
    <edge id=":7098841132_2" function="internal">
        <lane id=":7098841132_2_0" index="0" speed="13.89" length="8.00" width="4.00" shape="1279.01,1238.73 1276.68,1239.16 1275.07,1239.42 1273.46,1239.60 1271.09,1239.81"/>
    </edge>
    <edge id=":7098841132_3" function="internal">
        <lane id=":7098841132_3_0" index="0" speed="5.57" length="1.97" width="4.00" shape="1279.01,1238.73 1277.26,1238.80 1277.06,1238.73"/>
    </edge>
    <edge id=":7098841132_4" function="internal">
        <lane id=":7098841132_4_0" index="0" speed="5.57" length="4.38" width="4.00" shape="1277.06,1238.73 1275.93,1238.29 1275.03,1237.19 1274.56,1235.50"/>
    </edge>
    <edge id=":7098841134_0" function="internal">
        <lane id=":7098841134_0_0" index="0" speed="13.89" length="7.99" width="4.00" shape="1364.41,1254.39 1356.56,1255.89"/>
    </edge>
    <edge id=":7098841134_1" function="internal">
        <lane id=":7098841134_1_0" index="0" speed="5.79" length="6.51" width="4.00" shape="1364.41,1254.39 1362.64,1254.48 1361.25,1253.98 1360.24,1252.90 1359.62,1251.24"/>
    </edge>
    <edge id=":7098841136_0" function="internal">
        <lane id=":7098841136_0_0" index="0" speed="5.79" length="6.51" width="4.00" shape="1354.54,1228.47 1353.91,1226.80 1352.90,1225.72 1351.51,1225.22 1349.73,1225.30"/>
    </edge>
    <edge id=":7098841136_1" function="internal">
        <lane id=":7098841136_1_0" index="0" speed="13.89" length="8.00" width="4.00" shape="1354.54,1228.47 1352.88,1220.64"/>
    </edge>
    <edge id=":7098841136_2" function="internal">
        <lane id=":7098841136_2_0" index="0" speed="13.89" length="8.00" width="4.00" shape="1357.58,1223.74 1349.73,1225.30"/>
    </edge>
    <edge id=":7098841136_3" function="internal">
        <lane id=":7098841136_3_0" index="0" speed="5.68" length="1.77" width="4.00" shape="1357.58,1223.74 1355.82,1223.86"/>
    </edge>
    <edge id=":7098841136_4" function="internal">
        <lane id=":7098841136_4_0" index="0" speed="5.68" length="4.68" width="4.00" shape="1355.82,1223.86 1354.45,1223.38 1353.47,1222.31 1352.88,1220.64"/>
    </edge>
    <edge id=":7098841137_0" function="internal">
        <lane id=":7098841137_0_0" index="0" speed="13.89" length="7.99" width="4.00" shape="1035.96,1268.86 1036.48,1260.88"/>
    </edge>
    <edge id=":7098841137_1" function="internal">
        <lane id=":7098841137_1_0" index="0" speed="5.78" length="6.50" width="4.00" shape="1035.96,1268.86 1036.32,1267.12 1037.15,1265.90 1038.44,1265.19 1040.21,1265.00"/>
    </edge>
    <edge id=":7098841138_0" function="internal">
        <lane id=":7098841138_0_0" index="0" speed="5.62" length="6.38" width="4.00" shape="1110.87,1267.40 1112.61,1267.21 1113.86,1266.50 1114.60,1265.28 1114.85,1263.53"/>
    </edge>
    <edge id=":7098841138_1" function="internal">
        <lane id=":7098841138_1_0" index="0" speed="13.89" length="7.99" width="4.00" shape="1110.87,1267.40 1118.86,1267.40"/>
    </edge>
    <edge id=":7098841139_0" function="internal">
        <lane id=":7098841139_0_0" index="0" speed="13.89" length="8.00" width="4.00" shape="1197.55,1268.71 1197.12,1260.73"/>
    </edge>
    <edge id=":7098841139_1" function="internal">
        <lane id=":7098841139_1_0" index="0" speed="5.81" length="2.06" width="4.00" shape="1197.55,1268.71 1197.67,1266.94 1197.79,1266.69"/>
    </edge>
    <edge id=":7098841139_4" function="internal">
        <lane id=":7098841139_4_0" index="0" speed="5.81" length="4.46" width="4.00" shape="1197.79,1266.69 1198.32,1265.62 1199.51,1264.73 1201.24,1264.28"/>
    </edge>
    <edge id=":7098841139_2" function="internal">
        <lane id=":7098841139_2_0" index="0" speed="5.71" length="6.45" width="4.00" shape="1193.26,1264.86 1195.00,1264.55 1196.22,1263.76 1196.93,1262.49 1197.12,1260.73"/>
    </edge>
    <edge id=":7098841139_3" function="internal">
        <lane id=":7098841139_3_0" index="0" speed="13.89" length="7.99" width="4.00" shape="1193.26,1264.86 1201.24,1264.28"/>
    </edge>
    <edge id=":7098841140_0" function="internal">
        <lane id=":7098841140_0_0" index="0" speed="5.71" length="6.45" width="4.00" shape="1272.97,1256.19 1274.67,1255.75 1275.83,1254.86 1276.43,1253.54 1276.48,1251.77"/>
    </edge>
    <edge id=":7098841140_1" function="internal">
        <lane id=":7098841140_1_0" index="0" speed="13.89" length="7.99" width="4.00" shape="1272.97,1256.19 1280.87,1255.01"/>
    </edge>
    <edge id=":7098841141_0" function="internal">
        <lane id=":7098841141_0_0" index="0" speed="13.89" length="8.00" width="4.00" shape="1358.17,1244.70 1356.42,1236.90"/>
    </edge>
    <edge id=":7098841141_1" function="internal">
        <lane id=":7098841141_1_0" index="0" speed="5.71" length="1.98" width="4.00" shape="1358.17,1244.70 1358.03,1242.94 1358.10,1242.74"/>
    </edge>
    <edge id=":7098841141_4" function="internal">
        <lane id=":7098841141_4_0" index="0" speed="5.71" length="4.47" width="4.00" shape="1358.10,1242.74 1358.49,1241.56 1359.55,1240.56 1361.20,1239.93"/>
    </edge>
    <edge id=":7098841141_2" function="internal">
        <lane id=":7098841141_2_0" index="0" speed="5.62" length="6.38" width="4.00" shape="1353.36,1241.53 1355.03,1240.97 1356.09,1240.01 1356.55,1238.65 1356.42,1236.90"/>
    </edge>
    <edge id=":7098841141_3" function="internal">
        <lane id=":7098841141_3_0" index="0" speed="13.89" length="8.00" width="4.00" shape="1353.36,1241.53 1361.20,1239.93"/>
    </edge>
    <edge id=":7098841143_0" function="internal">
        <lane id=":7098841143_0_0" index="0" speed="5.82" length="2.03" width="4.00" shape="1273.32,1226.09 1273.33,1224.31 1273.43,1224.08"/>
    </edge>
    <edge id=":7098841143_2" function="internal">
        <lane id=":7098841143_2_0" index="0" speed="5.82" length="4.49" width="4.00" shape="1273.43,1224.08 1273.91,1222.95 1275.04,1221.98 1276.73,1221.43"/>
    </edge>
    <edge id=":7098841143_1" function="internal">
        <lane id=":7098841143_1_0" index="0" speed="13.89" length="7.99" width="4.00" shape="1268.82,1222.55 1276.73,1221.43"/>
    </edge>
    <edge id=":7202704675_0" function="internal">
        <lane id=":7202704675_0_0" index="0" speed="13.89" length="8.00" width="4.00" shape="439.32,965.77 431.32,965.81"/>
    </edge>
    <edge id=":7202704675_1" function="internal">
        <lane id=":7202704675_1_0" index="0" speed="5.69" length="6.43" width="4.00" shape="439.32,965.77 437.57,965.53 436.32,964.79 435.58,963.54 435.33,961.80"/>
    </edge>
    <edge id=":7202704676_0" function="internal">
        <lane id=":7202704676_0_0" index="0" speed="13.89" length="8.00" width="4.00" shape="439.45,905.83 431.45,905.89"/>
    </edge>
    <edge id=":7202704676_1" function="internal">
        <lane id=":7202704676_1_0" index="0" speed="5.68" length="6.42" width="4.00" shape="435.44,909.86 435.19,908.11 434.45,906.87 433.20,906.13 431.45,905.89"/>
    </edge>
    <edge id=":7202709257_0" function="internal">
        <lane id=":7202709257_0_0" index="0" speed="13.89" length="8.00" width="4.00" shape="478.92,1533.15 476.79,1525.44"/>
    </edge>
    <edge id=":7202709257_1" function="internal">
        <lane id=":7202709257_1_0" index="0" speed="5.67" length="1.76" width="4.00" shape="478.92,1533.15 478.70,1531.40"/>
    </edge>
    <edge id=":7202709257_4" function="internal">
        <lane id=":7202709257_4_0" index="0" speed="5.67" length="4.65" width="4.00" shape="478.70,1531.40 479.09,1530.01 480.10,1528.97 481.73,1528.29"/>
    </edge>
    <edge id=":7202709257_2" function="internal">
        <lane id=":7202709257_2_0" index="0" speed="5.84" length="6.53" width="4.00" shape="474.06,1530.55 475.65,1529.76 476.64,1528.64 477.02,1527.20 476.79,1525.44"/>
    </edge>
    <edge id=":7202709257_3" function="internal">
        <lane id=":7202709257_3_0" index="0" speed="13.89" length="7.99" width="4.00" shape="474.06,1530.55 481.73,1528.29"/>
    </edge>
    <edge id=":739469135_0" function="internal">
        <lane id=":739469135_0_0" index="0" speed="7.24" length="7.20" width="4.00" shape="901.22,914.40 900.95,912.55 900.24,910.98 899.08,909.70 897.49,908.70"/>
    </edge>
    <edge id=":739469135_1" function="internal">
        <lane id=":739469135_1_0" index="0" speed="4.91" length="5.73" width="4.00" shape="901.22,914.40 901.41,912.74 902.08,911.75 903.23,911.44 904.86,911.80"/>
    </edge>
    <edge id=":739469146_0" function="internal">
        <lane id=":739469146_0_0" index="0" speed="13.89" length="8.00" width="4.00" shape="713.63,1973.75 713.71,1981.75"/>
    </edge>
    <edge id=":739469146_1" function="internal">