<?xml version='1.0' encoding='UTF-8'?>
<nodes>
  <node id="11575444827" x="-99.189916" y="204.261706" shape="-99.726290,199.821852 -97.199730,200.256814 -94.791891,203.450920 -97.992964,205.863987 -101.197526,208.257892 -103.591431,205.053329 -103.063624,202.026893 -99.726290,199.821852 -99.726290,199.821852"/>
  <node id="122526352" x="-110.550474" y="-118.200127" shape="-91.534031,-138.848975 -87.524860,-135.814588 -84.963170,-128.235819 -108.737450,-114.497028 -113.892836,-120.614379 -113.128167,-121.258803 -91.534031,-138.848975 -91.534031,-138.848975"/>
  <node id="1623240596" x="-48.767241" y="-141.044799"/>
  <node id="1623240814" x="-126.366212" y="-38.510544" shape="-122.632624,-40.259922 -122.440629,-39.278526 -124.131831,-38.423705 -127.776312,-36.775143 -130.291795,-37.742562 -130.483791,-38.723957 -122.632624,-40.259922 -122.632624,-40.259922"/>
  <node id="1623240855" x="-262.828063" y="-12.33641" shape="-262.979533,-16.456732 -260.755437,-8.772112 -261.716015,-8.494100 -263.653838,-10.258407 -263.995000,-14.243832 -263.940111,-16.178720 -262.979533,-16.456732 -262.979533,-16.456732"/>
  <node id="1623240878" x="-522.842521" y="11.847843" shape="-411.545305,-0.837961 -410.947602,3.331558 -410.757986,17.330273 -522.747713,18.847201 -523.033502,9.856982 -522.937329,4.848485 -411.545305,-0.837961 -411.545305,-0.837961"/>
  <node id="1623240904" x="-426.906242" y="31.10658" shape="-294.001252,21.015682 -293.824760,38.514792 -294.396775,42.692825 -427.817516,39.866265 -427.994866,22.367164 -426.994488,22.357025 -294.001252,21.015682 -294.001252,21.015682"/>
  <node id="1623240906" x="-66.170455" y="27.468271" shape="15.750801,17.899226 15.900087,35.398590 14.988795,39.350031 -67.082158,36.227911 -67.258650,18.728801 9.709320,17.950766 15.750801,17.899226 15.750801,17.899226"/>
  <node id="1623240926" x="197.587314" y="56.178227" shape="196.007453,52.503443 198.222612,54.034306 198.921272,57.972818 199.167175,59.853011 198.248479,60.247977 195.088757,52.898408 196.007453,52.503443 196.007453,52.503443"/>
  <node id="1733927944" x="-139.67008" y="52.75286" shape="-138.410645,48.956306 -137.461506,49.271165 -139.980377,56.864273 -140.929515,56.549414 -140.889496,54.627166 -140.437876,50.652743 -138.410645,48.956306 -138.410645,48.956306"/>
  <node id="1733931214" x="-4.768433" y="185.557849" shape="0.459010,175.546039 2.854259,182.932097 1.363735,190.792017 0.561327,192.497313 -9.937985,192.617469 -15.268815,183.161608 -10.040963,175.569710 0.459010,175.546039 0.459010,175.546039"/>
  <node id="1964062480" x="-22.769536" y="-232.462206" shape="-19.285980,-233.518065 -17.519562,-232.445723 -17.522702,-231.445728 -28.022650,-231.478694 -28.019510,-232.478689 -26.285085,-233.406091 -19.285980,-233.518065 -19.285980,-233.518065"/>
  <node id="254134349" x="88.835991" y="161.041295" shape="86.262686,157.819789 86.427210,157.847900 92.622557,162.672834 92.015926,163.467818 82.025061,175.867081 77.990853,173.959692 73.919638,167.073095 86.262686,157.819789 86.262686,157.819789"/>
  <node id="254134357" x="-20.920105" y="174.392049" shape="-25.980903,170.155208 -15.491978,170.637327 -10.419723,176.788290 -15.508338,184.305438 -26.006952,184.476021 -26.169412,174.477340 -26.164568,174.150989 -25.980903,170.155208 -25.980903,170.155208"/>
  <node id="254134379" x="-5.77647" y="-19.692707"/>
  <node id="254134388" x="80.628014" y="3.673691" shape="-46.067528,-5.681785 81.556799,-5.084155 81.699163,12.415266 80.699196,12.423401 -46.265529,12.393136 -46.455145,-1.605579 -46.067528,-5.681785 -46.067528,-5.681785"/>
  <node id="25679008" x="490.053033" y="-8.910564" shape="489.069001,-17.662374 492.986314,-0.606447 492.011690,-0.382600 491.349638,-0.257165 378.907108,20.679693 377.619251,16.783933 375.026040,-0.522865 489.069001,-17.662374 489.069001,-17.662374"/>
  <node id="268900414" x="384.323142" y="-12.163298" shape="383.484762,-20.930260 387.117945,-3.811557 386.139734,-3.603947 385.437291,-3.484521 325.117639,4.259088 277.912422,8.340271 270.571072,8.814638 269.355291,-8.787925 269.307447,-12.787639 383.484762,-20.930260 383.484762,-20.930260"/>
  <node id="272907210" x="0.872665" y="55.094271"/>
  <node id="272907622" x="-28.688839" y="-18.678144"/>
  <node id="272907627" x="-21.602959" y="25.296828" shape="-16.678230,-19.319059 -16.353099,25.258538 -16.352971,25.285782 -16.350867,26.285780 -26.850843,26.307872 -30.663370,-18.359979 -27.177951,-19.242478 -16.678230,-19.319059 -16.678230,-19.319059"/>
  <node id="272907766" x="-5.064856" y="54.06921"/>
  <node id="342499711" x="-2.746557" y="362.230597" shape="2.114022,328.172745 6.009236,329.316526 2.511472,363.187485 -7.988175,363.273642 -8.385290,328.292901 2.114022,328.172745 2.114022,328.172745"/>
  <node id="342500465" x="-24.621853" y="-417.686798" shape="-21.228838,-421.777941 -19.374676,-417.858945 -19.243517,-413.861096 -29.737870,-413.516802 -29.869030,-417.514651 -28.226391,-421.592858 -21.228838,-421.777941 -21.228838,-421.777941"/>
  <node id="342500652" x="-7.262016" y="-132.371743" shape="-12.507800,-139.374903 -2.007802,-139.368580 -1.896015,-128.528758 -12.391422,-128.218227 -14.356856,-134.003689 -12.507800,-139.374903 -12.507800,-139.374903"/>
  <node id="342500661" x="-23.056415" y="-141.090423" shape="-28.284411,-148.106872 -17.784463,-148.073905 -15.961575,-139.458477 -17.741802,-134.139352 -28.241351,-134.042095 -30.425995,-137.820975 -29.614649,-145.779726 -28.284411,-148.106872 -28.284411,-148.106872"/>
  <node id="342500721" x="-7.186205" y="-258.263846" shape="-3.711971,-259.349985 -1.936206,-258.260685 2.030586,-188.844463 -1.978359,-188.260697 -12.478357,-188.267020 -12.436204,-258.267007 -10.709836,-259.177097 -3.711971,-259.349985 -3.711971,-259.349985"/>
  <node id="342500845" x="-23.851082" y="-300.065415" shape="-27.339439,-301.105302 -20.339895,-301.025397 -19.951620,-275.124601 -26.950724,-275.012626 -31.287411,-276.113358 -27.339439,-301.105302 -27.339439,-301.105302"/>
  <node id="342501229" x="-20.348172" y="324.35346" shape="-15.364103,275.325697 -15.089677,325.307782 -25.589280,325.399062 -29.913933,276.254643 -25.863949,275.382666 -15.364103,275.325697 -15.364103,275.325697"/>
  <node id="342502611" x="-21.928091" y="-19.280768"/>
  <node id="342502960" x="-21.542083" y="54.229473"/>
  <node id="3701998332" x="-464.103372" y="-415.36877" shape="-466.063186,-419.388612 -462.063387,-419.348526 -460.117259,-417.396306 -460.089676,-413.396401 -468.086502,-413.335379 -468.119962,-417.335239 -466.063186,-419.388612 -466.063186,-419.388612"/>
  <node id="3701998333" x="-331.923682" y="-416.238386" shape="-330.018061,-420.284200 -327.951940,-418.293931 -327.896201,-414.294320 -331.895812,-414.238580 -331.910590,-414.238429 -335.910505,-414.212246 -335.936688,-418.212160 -334.016960,-420.190371 -330.018061,-420.284200 -330.018061,-420.284200"/>
  <node id="4023442786" x="12.917776" y="187.159405"/>
  <node id="4023449777" x="-23.053923" y="-369.895022" shape="-17.839536,-371.066631 -17.806746,-370.067169 -19.565566,-368.855135 -26.565110,-368.935040 -28.301100,-369.722875 -28.333890,-370.722337 -17.839536,-371.066631 -17.839536,-371.066631"/>
  <node id="4033455042" x="-51.291879" y="-87.32175" shape="-49.161738,-90.851976 -48.456399,-90.143106 -49.168571,-88.022864 -52.004973,-85.202435 -54.127359,-84.500394 -54.832698,-85.209264 -49.161738,-90.851976 -49.161738,-90.851976"/>
  <node id="4033455043" x="-36.493304" y="170.916578" shape="-32.624941,169.489774 -32.516773,170.483906 -34.426345,171.769621 -38.415914,172.058319 -40.469835,171.349250 -40.578002,170.355117 -32.624941,169.489774 -32.624941,169.489774"/>
  <node id="4593281295" x="317.79831" y="410.946962"/>
  <node id="7098841130" x="227.761333" y="-70.669297" shape="231.646428,-72.884255 231.864356,-68.890196 229.772209,-66.674753 225.772224,-66.663870 223.672967,-68.856767 223.858289,-72.852471 231.646428,-72.884255 231.646428,-72.884255"/>
  <node id="7098841131" x="309.565832" y="-75.132803" shape="307.732075,-79.211692 311.728689,-79.047142 313.380780,-77.466506 313.721763,-73.481066 311.701610,-71.203623 307.703955,-71.066673 305.680737,-72.917845 305.462809,-76.911904 307.732075,-79.211692 307.732075,-79.211692"/>
  <node id="7098841132" x="388.02357" y="-81.845434" shape="389.484051,-86.072371 391.580698,-84.555939 392.326251,-80.626035 390.464447,-78.098152 386.490271,-77.644363 384.208622,-79.511731 383.867639,-83.497171 385.518309,-85.549981 389.484051,-86.072371 389.484051,-86.072371"/>
  <node id="7098841134" x="473.433913" y="-66.172558" shape="474.516138,-70.511773 476.987774,-68.887345 477.738060,-64.958341 473.807804,-64.207817 469.878323,-63.460036 469.130541,-67.389517 470.611875,-69.641867 474.516138,-70.511773 474.516138,-70.511773"/>
  <node id="7098841135" x="463.366536" y="-113.00031" shape="463.016186,-114.969385 465.327857,-113.391745 466.110726,-109.469103 462.188085,-108.686234 459.778736,-110.330536 459.078037,-114.268686 463.016186,-114.969385 463.016186,-114.969385"/>
  <node id="7098841136" x="466.608914" y="-96.754073" shape="467.787365,-101.068149 470.100431,-99.536117 470.944288,-95.626142 469.433219,-93.286610 465.529527,-92.414151 463.051786,-94.043568 462.306233,-97.973472 463.864724,-100.285280 467.787365,-101.068149 467.787365,-101.068149"/>
  <node id="7098841137" x="149.150919" y="-56.445958" shape="147.432804,-60.574890 151.423195,-60.297809 153.216371,-58.309315 153.080876,-54.311610 150.900399,-52.330218 146.908015,-52.576930 147.154727,-56.569314 147.155723,-56.584498 147.432804,-60.574890 147.432804,-60.574890"/>
  <node id="7098841138" x="227.807285" y="-53.780032" shape="229.796394,-57.785459 231.736891,-55.915025 231.873043,-51.917343 227.875361,-51.781191 227.739537,-51.781180 223.741833,-51.916675 223.877328,-55.914380 225.796409,-57.774576 229.796394,-57.785459 229.796394,-57.785459"/>
  <node id="7098841139" x="310.201198" y="-56.586184" shape="312.063075,-60.652314 313.951822,-59.021921 314.400163,-55.047127 312.486532,-52.742065 308.497103,-52.451446 306.271592,-54.451191 306.135440,-58.448873 308.065420,-60.515364 312.063075,-60.652314 312.063075,-60.652314"/>
  <node id="7098841140" x="389.881537" y="-65.573791" shape="391.414836,-69.774862 393.448636,-68.271161 394.179692,-64.338534 390.247065,-63.607477 390.105707,-63.586394 386.130913,-63.138054 385.682572,-67.112848 387.440660,-69.321073 391.414836,-69.774862 391.414836,-69.774862"/>
  <node id="7098841141" x="470.238984" y="-80.511847" shape="471.318371,-84.851769 473.701551,-83.342152 474.580769,-79.439976 473.061022,-77.042538 469.156759,-76.172632 466.671885,-77.814477 465.940829,-81.747104 467.414679,-83.979310 471.318371,-84.851769 471.318371,-84.851769"/>
  <node id="7098841143" x="385.739062" y="-99.188367" shape="389.326862,-101.858141 390.027561,-97.919991 388.244323,-95.483820 384.278581,-94.961430 381.975576,-96.772549 381.548316,-100.749665 389.326862,-101.858141 389.326862,-101.858141"/>
  <node id="7202704675" x="-451.734791" y="-355.524287" shape="-453.726035,-359.528653 -449.726044,-359.519902 -447.745414,-357.545394 -447.724279,-353.545450 -455.724097,-353.503040 -455.745372,-357.502984 -453.726035,-359.528653 -453.726035,-359.528653"/>
  <node id="7202704676" x="-451.603669" y="-415.454967" shape="-447.616846,-417.481107 -447.590663,-413.481193 -449.612425,-411.450601 -453.612416,-411.459352 -455.589782,-413.427431 -455.617365,-417.427336 -451.616761,-417.454924 -447.616846,-417.481107 -447.616846,-417.481107"/>
  <node id="7202709257" x="-409.198957" y="207.981626" shape="-408.333011,203.594128 -405.826915,205.044053 -404.825674,208.916716 -406.207510,211.305967 -410.063562,212.369388 -412.365338,211.139795 -413.625321,207.343423 -412.189388,204.656370 -408.333011,203.594128 -408.333011,203.594128"/>
  <node id="739469135" x="14.05817" y="-410.913856" shape="11.288254,-414.424919 18.504918,-411.389706 17.106899,-407.641968 16.160333,-406.966590 12.161655,-406.863766 9.587370,-410.804561 11.288254,-414.424919 11.288254,-414.424919"/>
  <node id="739469146" x="-173.392081" y="656.433936" shape="-171.430162,652.415121 -171.347329,660.411245 -175.347078,660.456123 -177.459595,658.292787 -177.319670,654.295235 -175.429982,652.453112 -171.430162,652.415121 -171.430162,652.415121"/>
  <node id="739469426" x="-11.123679" y="-417.638628" shape="-5.966375,-421.757452 -5.875048,-417.758495 -7.525954,-413.726292 -14.523818,-413.553404 -16.372310,-417.518761 -16.463637,-421.517719 -5.966375,-421.757452 -5.966375,-421.757452"/>
  <node id="739469799" x="-182.014862" y="269.156731" shape="-182.148279,264.686586 -180.337275,265.011167 -177.691858,268.011463 -182.553122,273.596357 -185.889518,271.389899 -185.671028,266.581377 -182.148279,264.686586 -182.148279,264.686586"/>
  <node id="739469801" x="-5.493415" y="9.304163" shape="-0.253426,8.252965 2.821869,54.590541 -1.140026,55.141353 -10.314615,54.119469 -10.752926,8.355457 -0.253426,8.252965 -0.253426,8.252965"/>
  <node id="739469830" x="-293.975024" y="-416.767246" shape="-289.977781,-418.772750 -289.972275,-414.772754 -291.816729,-412.850390 -295.813532,-412.690496 -297.946766,-414.711701 -298.002505,-418.711312 -294.002894,-418.767052 -293.977777,-418.767244 -289.977781,-418.772750 -289.977781,-418.772750"/>
  <node id="739469886" x="-407.661831" y="422.376075" shape="-408.144606,417.930074 -404.394695,419.322254 -405.786875,423.072165 -405.795734,423.095577 -407.234738,426.827770 -410.966932,425.388766 -412.115776,422.779029 -410.656561,419.054691 -408.144606,417.930074 -408.144606,417.930074"/>
  <node id="7882781955" x="28.201534" y="-405.637958" shape="25.152805,-408.909846 28.900543,-407.511827 30.201534,-405.636722 30.199063,-401.636723 26.199063,-401.639194 23.754786,-405.162108 25.152805,-408.909846 25.152805,-408.909846"/>
  <node id="7882781959" x="45.152812" y="-172.806586" shape="46.982272,-174.092306 47.130668,-173.103377 46.770683,-171.630791 46.182786,-170.821856 43.174956,-172.509795 42.947044,-173.173445 43.026560,-173.498723 43.534941,-173.982381 46.982272,-174.092306 46.982272,-174.092306"/>
  <node id="7882781961" x="33.333926" y="-165.874621" shape="34.761095,-170.112921 36.444731,-169.087547 37.770750,-165.313732 35.831096,-162.164616 31.864224,-161.650881 30.799587,-169.559336 34.761095,-170.112921 34.761095,-170.112921"/>
  <node id="7882781962" x="22.272755" y="-245.02947" shape="23.650585,-249.284066 25.755759,-247.834587 26.606651,-243.926137 24.807094,-241.344755 20.845586,-240.791170 19.695777,-248.684492 23.650585,-249.284066 23.650585,-249.284066"/>
  <node id="7882781963" x="33.934288" y="-247.568253" shape="35.279595,-251.833244 35.909346,-247.883129 35.912144,-247.865044 36.505727,-243.909332 32.550015,-243.315749 30.451284,-244.763136 29.600392,-248.671586 31.329479,-251.203493 35.279595,-251.833244 35.279595,-251.833244"/>
  <node id="7882781964" x="16.274195" y="-324.73597" shape="18.170710,-328.786060 20.202495,-326.873365 20.341091,-322.875767 18.299391,-320.748668 14.299471,-320.723431 14.172032,-328.683236 18.170710,-328.786060 18.170710,-328.786060"/>
  <node id="7882781965" x="28.15181" y="-325.147764" shape="26.154281,-329.148999 30.154281,-329.146528 30.198230,-321.171313 26.198501,-321.124757 24.223510,-323.010369 24.084914,-327.007967 26.154281,-329.148999 26.154281,-329.148999"/>
  <node id="7882785275" x="-322.775529" y="68.656602" shape="-326.743892,66.594541 -318.744949,66.718969 -318.807074,70.718486 -319.567110,71.772055 -323.342840,73.092609 -326.806196,70.594055 -326.743892,66.594541 -326.743892,66.594541"/>
  <node id="7882790785" x="-160.793832" y="73.910386" shape="-164.432466,71.278079 -161.730801,71.697369 -160.413774,71.946829 -156.486660,72.706945 -157.246776,76.634059 -159.008992,78.010916 -163.003352,77.798576 -165.045911,75.230759 -164.432466,71.278079 -164.432466,71.278079"/>
  <node id="7882790798" x="-388.945093" y="336.145852" shape="-390.865186,332.106886 -386.865976,332.186398 -385.068986,333.915204 -384.834910,337.908349 -387.022586,340.183669 -391.021842,340.106548 -390.944698,336.106096 -390.865186,332.106886 -390.865186,332.106886"/>
  <node id="858208919" x="310.222237" y="-91.075622" shape="313.985723,-93.491440 314.412983,-89.514324 312.055994,-86.996733 308.059380,-87.161283 308.223930,-91.157897 310.008607,-93.064180 313.985723,-93.491440 313.985723,-93.491440"/>
  <node id="858208939" x="311.202191" y="-42.84523" shape="312.906286,-46.979968 314.988727,-45.224756 315.377734,-41.243717 311.396694,-40.854710 311.323735,-40.848927 307.331129,-40.605838 307.088040,-44.598445 308.916857,-46.689349 312.906286,-46.979968 312.906286,-46.979968"/>
  <node id="858208985" x="148.249856" y="-41.864622" shape="146.500376,-45.980362 150.492760,-45.733650 152.332816,-43.689298 152.159372,-39.693060 144.192683,-39.983307 144.310500,-43.981571 146.500376,-45.980362 146.500376,-45.980362"/>
  <node id="858209108" x="150.387727" y="-74.257908" shape="150.480388,-76.255760 154.476093,-76.070438 154.290771,-72.074734 152.105842,-70.128976 148.115451,-70.406057 148.392531,-74.396448 150.480388,-76.255760 150.480388,-76.255760"/>
  <node id="8880269457" x="-210.121352" y="428.987573" shape="-209.587550,424.547409 -206.627709,431.779429 -210.258651,433.457601 -211.348956,433.287920 -214.298192,430.585698 -213.353202,425.896433 -209.587550,424.547409 -209.587550,424.547409"/>
  <node id="Custom75" x="-342.17813300000006" y="-1319.705606"/>
  <node id="Custom76" x="-12.191446" y="-464.393161"/>
  <node id="Custom77" x="387.523115" y="500.883492"/>
  <node id="Custom78" x="334.565506" y="559.964117"/>
  <node id="Custom79" x="778.181732" y="-75.054405"/>
  <node id="Custom80" x="566.962847" y="-52.78971400000001"/>
  <node id="Custom81" x="-553.912946" y="-381.548959"/>
  <node id="Custom82" x="-418.426254" y="577.901215"/>
  <node id="Custom83" x="723.501888" y="-502.555021"/>
  <node id="Custom84" x="-17.199655" y="686.513704"/>
  <node id="Custom85" x="-0.5023299999999828" y="635.726159"/>
  <node id="Custom86" x="-624.031846" y="-381.492081"/>
  <node id="Custom87" x="-887.056017" y="3.540860000000027"/>
  <node id="Custom88" x="550.250821" y="-98.53968400000001"/>
  <node id="Custom89" x="546.840765" y="-114.052286"/>
  <node id="Custom90" x="-168.67372699999999" y="818.69529"/>
</nodes>
