<?xml version='1.0' encoding='UTF-8'?>
<edges>
  <edge id="13276111" from="122526352" to="342500845" numLanes="1" width="4.0" shape="-88.545708,-136.168572 -73.944417,-149.914202 -73.854481,-150.004441 -60.523965,-164.260446 -60.403042,-164.402503 -60.295882,-164.555209 -49.150894,-182.126488 -49.019591,-182.368997 -41.825951,-198.169152 -41.734791,-198.409138 -35.251203,-219.458464 -35.202591,-219.649185 -35.172960,-219.843761 -31.280120,-257.914435 -27.396884,-275.182334 "/>
  <edge id="25079566" from="739469801" to="272907210" numLanes="1" width="4.0" shape="-1.140025,55.141350 -1.108282,55.369674 "/>
  <edge id="59613210" from="342502611" to="342500661" numLanes="3" width="3.5" shape="-16.678316,-19.329397 -17.741802,-134.139352 "/>
  <edge id="59613218" from="342500721" to="342500652" numLanes="3" width="3.5" shape="-12.478358,-188.267020 -12.507800,-139.374903 "/>
  <edge id="59613227" from="272907766" to="1733931214" numLanes="3" width="3.5" shape="-10.314843,54.081045 -10.040964,175.569709 "/>
  <edge id="95868368" from="254134349" to="342499711" numLanes="1" width="4.0" shape="78.585282,173.781974 23.874530,245.669347 23.750080,245.853219 12.906526,263.964697 12.822121,264.121038 12.751924,264.284251 12.696489,264.453051 6.483617,286.652888 6.441893,286.834024 3.044995,305.511298 3.014303,305.789518 2.111916,328.428546 "/>
  <edge id="123541554" from="254134388" to="268900414" numLanes="5" width="3.5" shape="81.699163,12.415266 233.779129,11.178040 234.272158,11.160121 270.532365,8.817140 "/>
  <edge id="149327552" from="342500721" to="268900414" numLanes="1" width="4.0" shape="-1.939531,-188.349527 5.434334,-117.313446 5.480089,-117.048150 9.994000,-98.453137 10.036524,-98.303581 10.090537,-98.157781 17.855129,-79.463481 17.959978,-79.248368 18.089769,-79.047317 33.775523,-57.673987 33.911018,-57.508668 34.063383,-57.358753 54.748370,-39.075954 54.915659,-38.943302 55.096135,-38.829238 78.441026,-25.764053 78.623104,-25.673973 78.813381,-25.602829 104.081338,-17.592327 104.262519,-17.544107 104.447420,-17.513065 154.029316,-11.562577 154.098581,-11.555485 190.439759,-8.472673 190.602459,-8.465526 231.519707,-8.335570 231.549981,-8.335703 269.355291,-8.787925 "/>
  <edge id="149327572" from="254134349" to="4023442786" numLanes="2" width="4.0" shape="73.919638,167.073095 62.490214,173.829937 48.562961,179.182115 31.581976,182.246100 12.723288,183.164136 "/>
  <edge id="149327583" from="1623240855" to="122526352" numLanes="2" width="4.0" shape="-260.755437,-8.772111 -237.509014,-15.500130 -236.973718,-15.697408 -217.558040,-24.472174 -217.138850,-24.692380 -216.748618,-24.960578 -193.698670,-42.900074 -193.577743,-42.998026 -108.737450,-114.497028 "/>
  <edge id="149327596" from="272907210" to="1623240906" numLanes="1" width="4.0" shape="-1.108915,55.365083 5.146112,101.134172 5.180852,101.321416 5.233245,101.504506 5.302813,101.681784 12.060219,116.749098 12.157375,116.938132 12.274042,117.115789 12.408903,117.280062 12.560435,117.429096 26.657717,129.891639 26.801757,130.007568 26.955888,130.109700 27.118792,130.197161 27.289077,130.269205 46.435515,137.345098 46.614712,137.401905 46.798451,137.441636 46.985109,137.463940 47.173037,137.468621 64.201777,137.092036 64.380689,137.080039 64.557807,137.052066 64.731708,137.008341 64.900994,136.949216 78.378729,131.552610 78.572835,131.462559 78.756209,131.352285 78.926752,131.223052 91.738707,120.388294 91.881452,120.255098 92.010530,120.108619 92.124710,119.950252 92.222906,119.781508 99.689503,105.375931 99.771892,105.195624 99.836027,105.008048 99.881277,104.815043 102.763890,89.037594 102.791722,88.815686 102.794605,88.592059 102.772502,88.369508 100.379224,73.046096 100.341855,72.863257 100.287607,72.684698 100.216952,72.511972 100.130506,72.346583 91.097923,56.870346 90.992477,56.708228 90.871867,56.557051 90.737219,56.418231 90.589793,56.293064 76.090699,45.143201 75.934792,45.034688 75.769295,44.941455 75.595698,44.864343 75.415569,44.804047 57.064077,39.616187 56.882564,39.573899 56.697903,39.548690 30.588435,37.217122 15.682139,35.404871 "/>
  <edge id="149327600" from="4033455042" to="1623240814" numLanes="2" width="4.0" shape="-49.161738,-90.851976 -51.208618,-92.909103 -51.532937,-93.201277 -51.887163,-93.456372 -52.267077,-93.671348 -64.665015,-99.819186 -65.003812,-99.968079 -65.354919,-100.085024 -65.715332,-100.169019 -80.376274,-102.877636 -80.795730,-102.932384 -81.218622,-102.942530 -81.640221,-102.907959 -97.681318,-100.733769 -98.122551,-100.648489 -98.551434,-100.514253 -98.962553,-100.332755 -111.516035,-93.925268 -111.927068,-93.683561 -112.306418,-93.394660 -123.396292,-83.852890 -123.659889,-83.604455 -123.899931,-83.333193 -124.114450,-83.041329 -124.301686,-82.731255 -124.460105,-82.405514 -130.896467,-67.489268 -131.023581,-67.154153 -131.120187,-66.809003 -131.185510,-66.456592 -133.058178,-53.018439 -133.094903,-52.577982 -133.082809,-52.136162 -133.022044,-51.698373 -130.483790,-38.723957 "/>
  <edge id="161422145" from="4033455043" to="1733927944" numLanes="2" width="4.0" shape="-32.624941,169.489774 -33.343593,162.884905 -33.385985,162.594699 -38.631170,134.048672 -38.745385,133.584882 -38.914069,133.138012 -47.032977,114.990845 -47.186973,114.682918 -47.366879,114.389373 -57.924952,98.718437 -58.084493,98.498184 -70.632309,82.360012 -70.869495,82.082140 -71.131044,81.827067 -71.414774,81.596921 -85.890720,70.912833 -86.153759,70.734392 -86.430135,70.577399 -109.829485,58.489096 -110.112973,58.356427 -110.405967,58.246330 -137.461507,49.271165 "/>
  <edge id="161422147" from="254134357" to="342502960" numLanes="3" width="3.5" shape="-15.491978,170.637327 -15.359454,167.754145 -15.354097,167.469609 -16.292263,54.185997 "/>
  <edge id="185741173" from="342500465" to="Custom75" numLanes="2" width="3.5" shape="-21.228838,-421.777941 -22.796595,-481.051358 -22.810153,-481.280149 -28.866524,-546.968516 -28.885347,-547.131027 -36.466906,-601.447585 -36.480337,-601.535613 -43.957363,-646.681997 -43.994561,-646.873369 -58.432416,-711.487546 -58.480299,-711.676861 -73.097704,-763.358459 -73.144546,-763.510748 -99.487630,-842.694971 -99.548294,-842.862893 -117.760727,-889.516614 -117.846132,-889.716786 -148.730437,-956.288893 -148.802927,-956.436015 -235.766734,-1122.974968 -235.772384,-1122.985743 -271.004998,-1189.889656 -339.070206,-1321.315199 "/>
  <edge id="366215379" from="3701998332" to="3701998333" numLanes="1" width="4.0" shape="-462.063387,-419.348526 -461.171517,-508.341357 -456.755352,-519.155535 -446.926072,-525.824657 -417.689944,-527.379786 -343.112685,-528.365119 -339.864379,-521.538950 -335.847855,-498.221609 -334.016960,-420.190372 "/>
  <edge id="399627436" from="4023442786" to="1733931214" numLanes="2" width="4.0" shape="12.914743,183.159406 4.088219,183.166100 2.854256,182.932097 "/>
  <edge id="399628278" from="1623240596" to="342500661" numLanes="2" width="4.0" shape="-48.428230,-137.059191 -34.540707,-138.240445 -30.425995,-137.820975 "/>
  <edge id="399628652" from="4023449777" to="342500465" numLanes="3" width="3.5" shape="-17.839535,-371.066632 -19.243516,-413.861096 "/>
  <edge id="399629098" from="Custom76" to="739469426" numLanes="3" width="3.5" shape="-17.440077,-464.273294 -16.463638,-421.517718 "/>
  <edge id="399629099" from="739469426" to="342500721" numLanes="2" width="3.5" shape="-14.523818,-413.553404 -10.709835,-259.177097 "/>
  <edge id="400319452" from="1623240926" to="254134349" numLanes="2" width="4.0" shape="195.088757,52.898408 164.023308,66.254043 163.640984,66.443166 163.280973,66.671926 162.947367,66.937721 140.490205,86.877422 140.214515,87.147066 139.966072,87.442005 86.286623,157.788420 "/>
  <edge id="400319453" from="25679008" to="1623240926" numLanes="1" width="4.0" shape="377.796671,16.833863 361.942597,20.760771 264.060429,42.355212 198.222612,54.034306 "/>
  <edge id="400319719" from="122526352" to="1623240596" numLanes="2" width="4.0" shape="-84.963170,-128.235819 -69.615782,-133.423368 -48.093335,-137.101976 "/>
  <edge id="400840227" from="342501229" to="4033455043" numLanes="1" width="4.0" shape="-25.979745,275.523216 -27.722949,264.405006 -34.426345,171.769621 "/>
  <edge id="400840228" from="1623240878" to="1623240855" numLanes="1" width="4.0" shape="-411.070213,3.134827 -336.114147,-4.055628 -263.653838,-10.258407 "/>
  <edge id="400840229" from="1733927944" to="1623240904" numLanes="1" width="4.0" shape="-140.437876,50.652743 -197.285862,44.193012 -197.430098,44.181888 -245.443476,42.221924 -293.980699,38.712467 "/>
  <edge id="400840230" from="272907622" to="4033455042" numLanes="1" width="4.0" shape="-26.717704,-19.016708 -34.598998,-64.901935 -34.641116,-65.091474 -34.701415,-65.276036 -34.779326,-65.453882 -42.690456,-81.363077 -42.795842,-81.549300 -42.920520,-81.723198 -43.063062,-81.882781 -49.168571,-88.022865 "/>
  <edge id="400840231" from="1623240814" to="254134388" numLanes="1" width="4.0" shape="-127.776312,-36.775143 -122.206957,-24.462956 -122.113490,-24.281582 -122.002029,-24.110675 -121.873736,-23.952014 -121.729945,-23.807251 -110.825384,-13.895588 -110.685571,-13.779651 -110.535818,-13.676876 -110.377358,-13.588110 -96.113341,-6.428400 -95.931179,-6.348053 -95.741930,-6.286216 -95.547471,-6.243500 -76.773822,-3.089756 -76.533418,-3.064188 -46.348018,-1.690410 "/>
  <edge id="403719126" from="342500661" to="1964062480" numLanes="3" width="3.5" shape="-17.784463,-148.073905 -17.522702,-231.445728 "/>
  <edge id="464186486" from="4593281295" to="Custom77" numLanes="1" width="4.0" shape="317.831311,412.946690 364.775512,412.171977 377.755796,412.187437 378.766022,412.524400 379.110500,413.532087 379.220913,426.311359 379.215108,434.652693 379.229203,434.891108 382.115872,459.077169 385.106491,495.837758 385.529686,501.045484 "/>
  <edge id="464186488" from="Custom78" to="4593281295" numLanes="1" width="4.0" shape="336.564503,559.900779 336.317576,552.107637 335.958536,540.622758 335.938552,540.396450 335.893030,540.173870 322.028678,487.753152 321.156334,479.774538 319.910867,435.144433 319.798288,410.937661 "/>
  <edge id="539428329" from="342500661" to="342500652" numLanes="1" width="4.0" shape="-17.573466,-135.779292 -14.662539,-134.172429 "/>
  <edge id="539428330" from="342500652" to="254134379" numLanes="3" width="3.5" shape="-12.391423,-128.218228 -11.074264,-83.700520 -11.026469,-19.688787 "/>
  <edge id="759916613" from="7098841138" to="7098841130" numLanes="1" width="4.0" shape="229.796395,-57.785459 229.772209,-66.674754 "/>
  <edge id="771557529" from="7202704675" to="7202704676" numLanes="1" width="4.0" shape="-449.726045,-359.519901 -449.612426,-411.450600 "/>
  <edge id="771559866" from="739469886" to="7202709257" numLanes="1" width="4.0" shape="-410.656561,419.054691 -418.353788,416.038877 -418.660987,415.755168 -418.891128,414.943909 -414.837832,395.383915 -409.668587,372.826878 -409.633314,372.626735 -407.112614,352.339318 -407.104030,352.256003 -405.564709,333.464870 -405.558624,333.350251 -405.209768,319.018566 -405.209285,318.949014 -405.343945,306.052965 -405.355872,305.854756 -407.548416,285.960342 -407.550642,285.941012 -409.512181,269.604017 -409.555166,269.367349 -419.198668,229.932862 -419.202291,229.918285 -421.669120,220.149383 -421.945447,218.127258 -421.121681,216.602076 -416.720892,212.585366 -412.365338,211.139795 "/>
  <edge id="844927777" from="7882785275" to="7882790785" numLanes="1" width="4.0" shape="-323.342840,73.092609 -322.800256,74.643964 -321.483763,79.928068 -320.626381,83.399353 -320.572397,83.580623 -320.501531,83.755982 -320.414417,83.923863 -320.311834,84.082764 -320.194699,84.231265 -316.653291,88.308641 -316.511275,88.456164 -316.354918,88.588393 -316.185860,88.703941 -316.005873,88.801596 -315.816844,88.880336 -315.620755,88.939335 -315.419661,88.977973 -307.505679,90.082032 -307.273614,90.100725 -256.200453,91.231610 -177.766996,92.964909 -177.592237,92.961130 -177.418476,92.942107 -177.247039,92.907984 -177.079236,92.859022 -169.572625,90.307804 -169.413505,90.246031 -169.260231,90.170916 -169.113920,90.083006 -162.631600,85.801363 -162.491530,85.699882 -162.360753,85.586678 -162.240246,85.462597 -162.130910,85.328569 -160.246225,82.802644 -160.202203,82.741259 -159.501937,81.724793 -159.404965,81.569225 -159.322644,81.405432 -159.255667,81.234789 -159.204595,81.058730 -159.169858,80.878735 -159.151747,80.696315 -159.008991,78.010916 "/>
  <edge id="844927778" from="7202709257" to="7882790798" numLanes="1" width="4.0" shape="-404.825674,208.916716 -402.842757,208.404051 -402.826034,208.399650 -396.603286,206.733285 -394.364071,208.029721 -391.310762,218.474761 -385.737841,242.317095 -385.660256,242.571386 -381.299367,254.064687 -378.135000,277.690544 -375.595101,315.910909 -376.289516,330.894799 -379.082340,333.403017 -380.223965,333.631192 -385.068986,333.915203 "/>
  <edge id="844928878" from="739469135" to="7882781955" numLanes="1" width="4.0" shape="17.106900,-407.641968 23.754787,-405.162107 "/>
  <edge id="844928879" from="7882781962" to="7882781963" numLanes="1" width="4.0" shape="26.606652,-243.926137 30.451285,-244.763136 "/>
  <edge id="844928880" from="7882781964" to="7882781965" numLanes="1" width="4.0" shape="20.341091,-322.875767 24.223510,-323.010369 "/>
  <edge id="844928881" from="7882781959" to="7882781961" numLanes="1" width="4.0" shape="42.808762,-172.983172 41.189144,-170.754608 36.444731,-169.087547 "/>
  <edge id="862437854" from="Custom79" to="25679008" numLanes="5" width="3.5" shape="776.224501,-83.582696 594.324522,-41.836895 489.069001,-17.662374 "/>
  <edge id="862568002" from="268900414" to="Custom80" numLanes="5" width="3.5" shape="387.117946,-3.811557 456.507802,-18.538494 456.643077,-18.568325 568.914714,-44.260194 "/>
  <edge id="959781592" from="739469146" to="8880269457" numLanes="1" width="4.0" shape="-177.319671,654.295235 -186.934846,653.958679 -189.664722,653.002933 -190.595390,650.845034 -193.957111,546.246006 -194.098937,540.598699 -194.099425,540.582050 -195.024616,512.922612 -195.039836,512.734355 -195.072746,512.548374 -197.792101,500.522087 -197.834560,500.364506 -208.061156,467.767227 -208.167240,467.498704 -215.910786,451.406181 -217.805793,443.850551 -216.732837,439.163951 -211.348956,433.287921 "/>
  <edge id="970104164" from="1623240878" to="254134388" numLanes="4" width="3.5" shape="-410.757986,17.330274 -46.265529,12.393137 "/>
  <edge id="1245134729" from="11575444827" to="739469799" numLanes="1" width="4.0" shape="-99.726290,199.821852 -101.319947,197.409850 -101.434665,197.253307 -101.564016,197.108619 -101.706781,196.977149 -101.861617,196.860137 -102.027065,196.758682 -102.201568,196.673741 -102.383482,196.606114 -113.850266,192.966040 -114.033325,192.917341 -114.220169,192.886178 -114.409124,192.872832 -114.598494,192.877423 -114.786580,192.899908 -114.971695,192.940087 -115.152179,192.997598 -115.326413,193.071927 -115.492833,193.162405 -115.649946,193.268223 -165.987774,230.754624 -186.232697,245.825760 -186.375242,245.942453 -186.506446,246.071768 -186.625194,246.212605 -186.730480,246.363772 -186.821411,246.523985 -186.897214,246.691885 -190.576446,255.956936 -190.639103,256.140106 -190.683758,256.328476 -190.709991,256.520280 -190.717558,256.713722 -190.706387,256.906990 -190.676583,257.098272 -190.628425,257.285777 -190.562364,257.467747 -190.479020,257.642478 -185.671029,266.581378 "/>
  <edge id="399628653_1" from="1964062480" to="342500845" numLanes="2" width="3.5" shape="-19.285980,-233.518065 -19.951619,-275.124601 "/>
  <edge id="399628653_2" from="342500845" to="4023449777" numLanes="2" width="3.5" shape="-20.339894,-301.025397 -19.565565,-368.855135 "/>
  <edge id="161422151_1" from="254134379" to="739469801" numLanes="3" width="3.5" shape="-11.026220,-19.641461 -10.752926,8.355457 "/>
  <edge id="30830958_1" from="342502960" to="272907627" numLanes="3" width="3.5" shape="-16.292095,54.218427 -16.350867,26.285780 "/>
  <edge id="59613219_1" from="342500465" to="739469830" numLanes="1" width="4.0" shape="-29.871954,-419.594579 -58.415775,-419.091516 -289.977781,-418.772751 "/>
  <edge id="59613208_1" from="739469830" to="7202704675" numLanes="1" width="4.0" shape="-295.813532,-412.690496 -293.640010,-358.359661 -447.745415,-357.545393 "/>
  <edge id="59613208_2" from="7202704675" to="Custom81" numLanes="1" width="4.0" shape="-455.745373,-357.502984 -550.957696,-356.996565 -551.040071,-357.013941 -551.092294,-357.187626 -551.914077,-381.616201 "/>
  <edge id="59613233_1" from="Custom82" to="739469886" numLanes="1" width="4.0" shape="-417.394119,579.614311 -403.514369,571.251803 -403.348139,571.139932 -403.193938,571.011990 -403.053311,570.869262 -402.927672,570.713178 -402.818280,570.545307 -402.726235,570.367332 -402.652459,570.181041 -399.097072,559.697304 -399.044558,559.514218 -399.009699,559.326967 -398.992810,559.137249 -397.277023,517.465972 -397.276061,517.437762 -397.142861,512.512491 -397.142461,512.494793 -396.722552,489.408376 -393.946429,470.660934 -391.113025,456.597972 -391.081285,456.377814 -391.074189,456.155494 -391.091825,455.933760 -392.171846,447.982548 -392.203619,447.807451 -392.250831,447.635872 -392.313108,447.469169 -392.389956,447.308661 -392.480768,447.155620 -398.737896,437.606081 -398.859611,437.439705 -398.997806,437.286742 -399.151013,437.148816 -399.317603,437.027393 -399.495806,436.923764 -399.683731,436.839028 -399.879379,436.774086 -400.080673,436.729629 -409.511417,435.151431 -410.088606,434.834267 -410.067960,434.176001 -407.234737,426.827770 "/>
  <edge id="59613241_1" from="Custom83" to="7098841134" numLanes="1" width="4.0" shape="721.973319,-503.844780 716.838291,-497.758959 716.708704,-497.587466 716.598269,-497.403056 716.508263,-497.207859 716.439725,-497.004131 714.454707,-489.852931 714.413832,-489.674279 714.389481,-489.492635 714.381860,-489.309525 714.391032,-489.126487 715.228721,-480.418582 715.257250,-480.223502 715.304848,-480.032178 715.371051,-479.846471 715.455217,-479.668184 715.556528,-479.499051 715.673999,-479.340713 721.779445,-471.907043 721.901636,-471.771398 722.035687,-471.647461 769.879320,-431.303595 780.044369,-417.678034 785.309952,-409.477489 793.753050,-385.043621 799.839286,-366.446885 799.925165,-366.228676 800.035995,-366.022019 809.209863,-351.089991 809.300058,-350.955684 809.400812,-350.829106 825.257038,-332.483777 825.455989,-332.283988 867.477804,-295.653847 873.032924,-284.458798 880.253184,-269.918969 883.347470,-256.402652 882.210429,-244.461990 878.831728,-235.008409 849.550665,-190.811321 840.273105,-179.517927 830.905227,-173.006555 824.335055,-169.080608 751.426268,-144.896328 673.390490,-119.017896 633.753453,-106.014115 606.759136,-98.495096 552.961717,-86.160513 512.271347,-76.834661 480.697798,-69.595814 476.987773,-68.887345 "/>
  <edge id="59685250_1" from="Custom84" to="342501229" numLanes="3" width="3.5" shape="-11.949853,686.468064 -15.089676,325.307783 "/>
  <edge id="59685250_2" from="342501229" to="254134357" numLanes="3" width="3.5" shape="-15.364103,275.325698 -15.561198,238.999220 -15.336701,194.942550 -15.337326,194.830507 -15.508338,184.305439 "/>
  <edge id="72205657_1" from="858208985" to="7098841137" numLanes="1" width="4.0" shape="150.492760,-45.733650 150.900399,-52.330217 "/>
  <edge id="72205657_2" from="7098841137" to="858209108" numLanes="1" width="4.0" shape="151.423196,-60.297810 152.105842,-70.128976 "/>
  <edge id="59613241_2" from="7098841134" to="858208939" numLanes="1" width="4.0" shape="469.130541,-67.389517 424.236661,-58.846192 391.116840,-54.162383 355.907726,-49.223151 314.988728,-45.224757 "/>
  <edge id="59613241_4" from="858208939" to="858208985" numLanes="1" width="4.0" shape="307.088041,-44.598444 278.174789,-42.838071 249.548528,-41.733488 192.630241,-41.940321 152.332817,-43.689297 "/>
  <edge id="72205661_1" from="858208939" to="7098841139" numLanes="1" width="4.0" shape="312.906286,-46.979969 312.486532,-52.742066 "/>
  <edge id="399626393_1" from="1733931214" to="342499711" numLanes="3" width="3.5" shape="-9.937985,192.617469 -8.385290,328.292901 "/>
  <edge id="399626393_2" from="342499711" to="Custom85" numLanes="3" width="3.5" shape="-7.988175,363.273642 -5.752153,635.769238 "/>
  <edge id="862437853_1" from="25679008" to="1623240906" numLanes="5" width="3.5" shape="375.026041,-0.522865 324.271720,7.082045 224.635664,16.117243 15.750801,17.899225 "/>
  <edge id="59613219_3" from="3701998332" to="Custom86" numLanes="1" width="4.0" shape="-468.119962,-417.335239 -554.547890,-416.612228 -617.413211,-416.365057 -617.622329,-416.353267 -617.829068,-416.319672 -618.031159,-416.264641 -618.226387,-416.188776 -622.765790,-414.145119 -622.936951,-414.057946 -623.098960,-413.954756 -623.250323,-413.836500 -623.389644,-413.704269 -623.515637,-413.559283 -623.627141,-413.402879 -623.723127,-413.236500 -623.802709,-413.061680 -625.763865,-408.139465 -625.824904,-407.962626 -625.869154,-407.780858 -625.896226,-407.595750 -625.905883,-407.408922 -626.031822,-381.501803 "/>
  <edge id="59613219_2" from="739469830" to="3701998333" numLanes="1" width="4.0" shape="-298.002506,-418.711313 -327.951940,-418.293932 "/>
  <edge id="59613241_5" from="739469426" to="342500465" numLanes="1" width="4.0" shape="-16.368339,-419.657357 -19.361276,-419.668038 "/>
  <edge id="862437853_2" from="1623240906" to="1623240904" numLanes="5" width="3.5" shape="-67.258650,18.728801 -294.001252,21.015682 "/>
  <edge id="862437853_3" from="1623240904" to="Custom87" numLanes="5" width="3.5" shape="-427.994866,22.367164 -567.442807,23.780442 -618.696304,23.533094 -658.945638,21.603192 -659.007726,21.600436 -689.819159,20.342350 -721.248299,18.330613 -761.323813,14.060404 -885.723542,-5.107088 "/>
  <edge id="759916609_1" from="7098841134" to="7098841141" numLanes="1" width="4.0" shape="474.516137,-70.511773 473.061021,-77.042538 "/>
  <edge id="759916610_3" from="7098841141" to="Custom88" numLanes="1" width="4.0" shape="474.580768,-79.439976 550.690430,-96.588596 "/>
  <edge id="759916611_1" from="858208919" to="7098841143" numLanes="1" width="4.0" shape="314.412983,-89.514324 381.975577,-96.772548 "/>
  <edge id="759916611_2" from="7098841143" to="7098841135" numLanes="1" width="4.0" shape="390.027562,-97.919991 459.778737,-110.330536 "/>
  <edge id="759916612_1" from="Custom89" to="7098841136" numLanes="1" width="4.0" shape="546.418837,-116.007274 470.100431,-99.536118 "/>
  <edge id="759916609_2" from="7098841141" to="7098841136" numLanes="1" width="4.0" shape="471.318371,-84.851769 469.433219,-93.286610 "/>
  <edge id="759916609_3" from="7098841136" to="7098841135" numLanes="1" width="4.0" shape="467.787365,-101.068149 466.110726,-109.469103 "/>
  <edge id="759916610_1" from="7098841137" to="7098841138" numLanes="1" width="4.0" shape="153.080876,-54.311611 223.741833,-51.916675 "/>
  <edge id="759916610_4" from="7098841138" to="7098841139" numLanes="1" width="4.0" shape="231.873043,-51.917343 306.271592,-54.451191 "/>
  <edge id="759916612_3" from="7098841130" to="858209108" numLanes="1" width="4.0" shape="223.858289,-72.852471 154.476092,-76.070438 "/>
  <edge id="759916610_2" from="7098841139" to="7098841140" numLanes="1" width="4.0" shape="314.400162,-55.047127 386.130912,-63.138053 "/>
  <edge id="759916610_5" from="7098841140" to="7098841141" numLanes="1" width="4.0" shape="394.179692,-64.338533 466.671884,-77.814476 "/>
  <edge id="759916614_1" from="7098841140" to="7098841132" numLanes="1" width="4.0" shape="391.414836,-69.774861 390.464446,-78.098151 "/>
  <edge id="759916614_2" from="7098841132" to="7098841143" numLanes="1" width="4.0" shape="389.484051,-86.072370 388.244323,-95.483819 "/>
  <edge id="759916612_2" from="7098841136" to="7098841132" numLanes="1" width="4.0" shape="462.306233,-97.973472 391.580698,-84.555939 "/>
  <edge id="59613219_4" from="3701998333" to="7202704676" numLanes="1" width="4.0" shape="-335.936688,-418.212160 -447.616847,-417.481107 "/>
  <edge id="59613219_5" from="7202704676" to="3701998332" numLanes="1" width="4.0" shape="-455.617366,-417.427336 -460.117259,-417.396305 "/>
  <edge id="59613233_3" from="7202709257" to="7882785275" numLanes="1" width="4.0" shape="-408.333011,203.594129 -409.122699,200.727236 -409.127388,200.710496 -415.993119,176.605431 -417.669013,156.616012 -415.293173,135.020682 -406.726117,114.372304 -390.733964,92.836171 -382.566729,87.294879 -370.404561,80.431847 -359.570605,74.319203 -339.649845,70.393978 -326.806196,70.594055 "/>
  <edge id="59613233_4" from="7882785275" to="7882790785" numLanes="1" width="4.0" shape="-318.807075,70.718487 -180.252837,72.870688 -165.045910,75.230759 "/>
  <edge id="59613233_2" from="739469886" to="7882790798" numLanes="1" width="4.0" shape="-404.394694,419.322253 -394.850445,393.614312 -394.779060,393.378394 -389.041159,369.109417 -389.011141,368.955849 -388.993220,368.800405 -387.094551,343.750868 -387.089203,343.638269 -387.022585,340.183669 "/>
  <edge id="59613233_6" from="7882790798" to="7202709257" numLanes="1" width="4.0" shape="-386.865976,332.186398 -386.539999,315.790644 -386.195707,301.029945 -386.208164,300.755637 -389.509233,271.945493 -389.532825,271.792330 -389.568206,271.641454 -406.207510,211.305968 "/>
  <edge id="59613241_6" from="739469135" to="739469426" numLanes="1" width="4.0" shape="11.288254,-414.424919 6.363907,-416.738432 6.166250,-416.818722 5.961165,-416.877500 -4.848009,-419.360135 -5.031662,-419.393381 -5.217615,-419.409363 -5.927911,-419.437119 "/>
  <edge id="844928882_2" from="7882781963" to="7882781959" numLanes="1" width="4.0" shape="32.550015,-243.315749 42.991656,-173.731333 "/>
  <edge id="59613241_7" from="7882781962" to="7882781964" numLanes="1" width="4.0" shape="23.650585,-249.284066 20.000211,-273.362038 18.459086,-295.437075 18.299391,-320.748668 "/>
  <edge id="59613241_8" from="7882781964" to="739469135" numLanes="1" width="4.0" shape="18.170709,-328.786060 16.160333,-406.966590 "/>
  <edge id="844928882_1" from="7882781955" to="7882781965" numLanes="1" width="4.0" shape="26.199063,-401.639195 26.154281,-329.148999 "/>
  <edge id="844928882_3" from="7882781965" to="7882781963" numLanes="1" width="4.0" shape="26.198500,-321.124757 26.496936,-295.485068 26.504027,-295.338485 29.037964,-265.610918 29.055680,-265.465903 31.329479,-251.203493 "/>
  <edge id="59613241_3" from="858208985" to="7882781961" numLanes="1" width="4.0" shape="144.310501,-43.981571 138.094981,-44.164724 115.653715,-46.698932 99.202744,-50.946436 82.012257,-58.935787 69.814699,-68.200388 58.146046,-80.179122 48.105336,-96.900125 41.747700,-116.478696 35.831096,-162.164616 "/>
  <edge id="59613241_9" from="7882781961" to="7882781962" numLanes="1" width="4.0" shape="34.761095,-170.112921 24.807094,-241.344754 "/>
  <edge id="59613233_7" from="739469146" to="Custom90" numLanes="1" width="4.0" shape="-175.347077,660.456123 -175.133579,679.484322 -175.060451,688.274881 -175.059390,688.325469 -170.672597,818.762515 "/>
  <edge id="59613233_8" from="8880269457" to="739469146" numLanes="1" width="4.0" shape="-210.258651,433.457601 -198.327380,459.272450 -198.317837,459.292796 -185.572430,486.074771 -180.500318,509.548298 -176.939256,530.647274 -176.440055,546.109734 -175.429982,652.453112 "/>
  <edge id="59613233_5" from="7882790785" to="11575444827" numLanes="1" width="4.0" shape="-157.246776,76.634059 -142.239610,79.538785 -117.223736,88.477531 -98.159500,97.230194 -85.081454,108.861964 -73.748244,123.746766 -69.138030,137.666625 -68.965700,154.228288 -72.189770,170.831461 -79.097984,183.644792 -90.989583,195.575368 -97.199730,200.256814 "/>
  <edge id="59613233_9" from="11575444827" to="739469799" numLanes="1" width="4.0" shape="-103.591430,205.053330 -160.772600,247.769379 -160.898356,247.871512 -180.337274,265.011167 "/>
  <edge id="59613233_10" from="739469799" to="8880269457" numLanes="1" width="4.0" shape="-185.889518,271.389899 -199.915076,292.598017 -200.018444,292.773046 -212.591133,316.769326 -212.682055,316.968733 -212.750613,317.176891 -219.967711,343.945274 -220.004700,344.109763 -220.027703,344.276783 -222.581586,371.162918 -222.590514,371.363684 -222.485440,389.416799 -222.477859,389.579525 -222.457059,389.741094 -218.995839,410.054821 -218.958880,410.226055 -218.907080,410.393398 -213.353202,425.896434 "/>
  <edge id="72205661_2" from="7098841139" to="7098841131" numLanes="1" width="4.0" shape="312.063074,-60.652314 311.701610,-71.203623 "/>
  <edge id="72205661_3" from="7098841131" to="858208919" numLanes="1" width="4.0" shape="311.728690,-79.047142 312.055994,-86.996733 "/>
  <edge id="759916612_4" from="7098841132" to="7098841131" numLanes="1" width="4.0" shape="383.867638,-83.497170 313.380780,-77.466507 "/>
  <edge id="759916612_5" from="7098841131" to="7098841130" numLanes="1" width="4.0" shape="305.462809,-76.911905 231.646428,-72.884255 "/>
</edges>
