<?xml version="1.0" encoding="UTF-8"?>


<additional xmlns:xsi="http://www.w3.org/2001/XMLSchema-instance" xsi:noNamespaceSchemaLocation="http://sumo.dlr.de/xsd/additional_file.xsd">
    <tlLogic id="858208985" type="static" programID="0" offset="0">
        <phase duration="50" state="GG"/>
        <phase duration="3" state="yy"/>
        <phase duration="20" state="rr"/>
    </tlLogic>
</additional>
